New "Line.mdv201_hn_2_343_abc829" bus1=822 bus2=829 length=0.06096 geometry=3PH_VERT_1C-CU_#2_7STRCU_#2_7STRCU_#2_7STRACSR_1/0_6/1 normamps=224 emergamps=169 units=km enabled=true phases=3
New "Line.s_mdv201_hn_2_343_abc829-1b2" bus1=x_829.2 bus2=x_829_3.2 linecode=defaultSecondary normamps=400 emergamps=600 phases=1 length=100 units=ft
New "Line.s_mdv201_hn_2_343_abc829-1b1" bus1=x_829.2 bus2=x_829_2.2 linecode=defaultSecondary normamps=400 emergamps=600 phases=1 length=100 units=ft
New "Line.s_mdv201_hn_2_343_abc829-1b0" bus1=x_829.2 bus2=x_829_1.2 linecode=defaultSecondary normamps=400 emergamps=600 phases=1 length=100 units=ft
New "Line.mdv201_hn_2_499_abc834" bus1=829 bus2=834 length=0.088392 geometry=3PH_HORIZ_LG_1C-CU_#2_7STRCU_#2_7STRCU_#2_7STRACSR_1/0_6/1 normamps=224 emergamps=169 units=km enabled=true phases=3
New "Line.mdv201_hn_2_200_abc841" bus1=834 bus2=841 length=0.0768096 geometry=3PH_HORIZ_LG_1C-CU_#2_7STRCU_#2_7STRCU_#2_7STRACSR_1/0_6/1 normamps=224 emergamps=169 units=km enabled=true phases=3
New "Line.mdv201_hn_2_867_c839" bus1=841.3 bus2=839.3 length=0.01524 geometry=1PH-NONENONEAL_1/0_7STRACSR_1/0_6/1 normamps=218 emergamps=262 units=km enabled=true phases=1
New "Line.s_mdv201_hn_2_867_c839-1c0" bus1=x_839.3 bus2=x_839_1.3 linecode=defaultSecondary normamps=400 emergamps=600 phases=1 length=100 units=ft
New "Line.mdv201_1144261fuse" bus1=839.3 bus2=1144261.3 length=0.001524 geometry=1PH-NONENONEBUSBARBUSBAR normamps=2000 emergamps=2400 units=km enabled=true phases=1
New "Line.mdv201_hn_2_868_c833" bus1=1144261.3 bus2=833.3 length=0.0664464 geometry=1PH-NONENONEAL_1/0_7STRACSR_1/0_6/1 normamps=218 emergamps=262 units=km enabled=true phases=1
New "Line.s_mdv201_hn_2_868_c833-1c2" bus1=x_833.3 bus2=x_833_3.3 linecode=defaultSecondary normamps=400 emergamps=600 phases=1 length=100 units=ft
New "Line.s_mdv201_hn_2_868_c833-1c1" bus1=x_833.3 bus2=x_833_2.3 linecode=defaultSecondary normamps=400 emergamps=600 phases=1 length=100 units=ft
New "Line.s_mdv201_hn_2_868_c833-1c0" bus1=x_833.3 bus2=x_833_1.3 linecode=defaultSecondary normamps=400 emergamps=600 phases=1 length=100 units=ft
New "Line.mdv201_hn_2_869_c830" bus1=833.3 bus2=830.3 length=0.0417576 geometry=1PH-NONENONEAL_1/0_7STRACSR_1/0_6/1 normamps=218 emergamps=262 units=km enabled=true phases=1
New "Line.s_mdv201_hn_2_869_c830-1c2" bus1=x_830.3 bus2=x_830_3.3 linecode=defaultSecondary normamps=400 emergamps=600 phases=1 length=100 units=ft
New "Line.s_mdv201_hn_2_869_c830-1c1" bus1=x_830.3 bus2=x_830_2.3 linecode=defaultSecondary normamps=400 emergamps=600 phases=1 length=100 units=ft
New "Line.s_mdv201_hn_2_869_c830-1c0" bus1=x_830.3 bus2=x_830_1.3 linecode=defaultSecondary normamps=400 emergamps=600 phases=1 length=100 units=ft
New "Line.mdv201_hn_2_870_c831" bus1=830.3 bus2=831.3 length=0.0536448 geometry=1PH-NONENONEAL_1/0_7STRACSR_1/0_6/1 normamps=218 emergamps=262 units=km enabled=true phases=1
New "Line.s_mdv201_hn_2_870_c831-1c2" bus1=x_831.3 bus2=x_831_3.3 linecode=defaultSecondary normamps=400 emergamps=600 phases=1 length=100 units=ft
New "Line.s_mdv201_hn_2_870_c831-1c1" bus1=x_831.3 bus2=x_831_2.3 linecode=defaultSecondary normamps=400 emergamps=600 phases=1 length=100 units=ft
New "Line.s_mdv201_hn_2_870_c831-1c0" bus1=x_831.3 bus2=x_831_1.3 linecode=defaultSecondary normamps=400 emergamps=600 phases=1 length=100 units=ft
New "Line.mdv201_hn_2_871_c39630" bus1=831.3 bus2=39630.3 length=0.0466344 geometry=1PH-NONENONEAL_1/0_7STRACSR_1/0_6/1 normamps=218 emergamps=262 units=km enabled=true phases=1
New "Line.s_mdv201_hn_2_871_c39630-1c2" bus1=x_39630.3 bus2=x_39630_3.3 linecode=defaultSecondary normamps=400 emergamps=600 phases=1 length=100 units=ft
New "Line.s_mdv201_hn_2_871_c39630-1c1" bus1=x_39630.3 bus2=x_39630_2.3 linecode=defaultSecondary normamps=400 emergamps=600 phases=1 length=100 units=ft
New "Line.s_mdv201_hn_2_871_c39630-1c0" bus1=x_39630.3 bus2=x_39630_1.3 linecode=defaultSecondary normamps=400 emergamps=600 phases=1 length=100 units=ft
New "Line.mdv201_hn_2_872_c63667" bus1=39630.3 bus2=63667.3 length=0.0469392 geometry=1PH-NONENONEAL_1/0_7STRACSR_1/0_6/1 normamps=218 emergamps=262 units=km enabled=true phases=1
New "Line.s_mdv201_hn_2_872_c63667-1c2" bus1=x_63667.3 bus2=x_63667_3.3 linecode=defaultSecondary normamps=400 emergamps=600 phases=1 length=100 units=ft
New "Line.s_mdv201_hn_2_872_c63667-1c1" bus1=x_63667.3 bus2=x_63667_2.3 linecode=defaultSecondary normamps=400 emergamps=600 phases=1 length=100 units=ft
New "Line.s_mdv201_hn_2_872_c63667-1c0" bus1=x_63667.3 bus2=x_63667_1.3 linecode=defaultSecondary normamps=400 emergamps=600 phases=1 length=100 units=ft
New "Line.mdv201_hn_2_873_c63668" bus1=63667.3 bus2=63668.3 length=0.0490728 geometry=1PH-NONENONEAL_1/0_7STRACSR_1/0_6/1 normamps=218 emergamps=262 units=km enabled=true phases=1
New "Line.mdv201_hn_2_874_c63669" bus1=63668.3 bus2=63669.3 length=0.0445008 geometry=1PH-NONENONEAL_1/0_7STRACSR_1/0_6/1 normamps=218 emergamps=262 units=km enabled=true phases=1
New "Line.s_mdv201_hn_2_874_c63669-1c2" bus1=x_63669.3 bus2=x_63669_3.3 linecode=defaultSecondary normamps=400 emergamps=600 phases=1 length=100 units=ft
New "Line.s_mdv201_hn_2_874_c63669-1c1" bus1=x_63669.3 bus2=x_63669_2.3 linecode=defaultSecondary normamps=400 emergamps=600 phases=1 length=100 units=ft
New "Line.s_mdv201_hn_2_874_c63669-1c0" bus1=x_63669.3 bus2=x_63669_1.3 linecode=defaultSecondary normamps=400 emergamps=600 phases=1 length=100 units=ft
New "Line.mdv201_hn_2_875_c63670" bus1=63669.3 bus2=63670.3 length=0.0298704 geometry=1PH-NONENONEAL_1/0_7STRACSR_1/0_6/1 normamps=218 emergamps=262 units=km enabled=true phases=1
New "Line.s_mdv201_hn_2_875_c63670-1c1" bus1=x_63670.3 bus2=x_63670_2.3 linecode=defaultSecondary normamps=400 emergamps=600 phases=1 length=100 units=ft
New "Line.s_mdv201_hn_2_875_c63670-1c0" bus1=x_63670.3 bus2=x_63670_1.3 linecode=defaultSecondary normamps=400 emergamps=600 phases=1 length=100 units=ft
New "Line.mdv201_hn_2_876_c63671" bus1=63668.3 bus2=63671.3 length=0.0469392 geometry=1PH-NONENONEAL_1/0_7STRACSR_1/0_6/1 normamps=218 emergamps=262 units=km enabled=true phases=1
New "Line.s_mdv201_hn_2_876_c63671-1c2" bus1=x_63671.3 bus2=x_63671_3.3 linecode=defaultSecondary normamps=400 emergamps=600 phases=1 length=100 units=ft
New "Line.s_mdv201_hn_2_876_c63671-1c1" bus1=x_63671.3 bus2=x_63671_2.3 linecode=defaultSecondary normamps=400 emergamps=600 phases=1 length=100 units=ft
New "Line.s_mdv201_hn_2_876_c63671-1c0" bus1=x_63671.3 bus2=x_63671_1.3 linecode=defaultSecondary normamps=400 emergamps=600 phases=1 length=100 units=ft
New "Line.mdv201_hn_2_877_c63672" bus1=63671.3 bus2=63672.3 length=0.0496824 geometry=1PH-NONENONEAL_1/0_7STRACSR_1/0_6/1 normamps=218 emergamps=262 units=km enabled=true phases=1
New "Line.s_mdv201_hn_2_877_c63672-1c2" bus1=x_63672.3 bus2=x_63672_3.3 linecode=defaultSecondary normamps=400 emergamps=600 phases=1 length=100 units=ft
New "Line.s_mdv201_hn_2_877_c63672-1c1" bus1=x_63672.3 bus2=x_63672_2.3 linecode=defaultSecondary normamps=400 emergamps=600 phases=1 length=100 units=ft
New "Line.s_mdv201_hn_2_877_c63672-1c0" bus1=x_63672.3 bus2=x_63672_1.3 linecode=defaultSecondary normamps=400 emergamps=600 phases=1 length=100 units=ft
New "Line.mdv201_hn_2_866_c63673" bus1=63672.3 bus2=63673.3 length=0.0530352 geometry=1PH-NONENONEAL_1/0_7STRACSR_1/0_6/1 normamps=218 emergamps=262 units=km enabled=true phases=1
New "Line.s_mdv201_hn_2_866_c63673-1c3" bus1=x_63673.3 bus2=x_63673_4.3 linecode=defaultSecondary normamps=400 emergamps=600 phases=1 length=100 units=ft
New "Line.s_mdv201_hn_2_866_c63673-1c2" bus1=x_63673.3 bus2=x_63673_3.3 linecode=defaultSecondary normamps=400 emergamps=600 phases=1 length=100 units=ft
New "Line.s_mdv201_hn_2_866_c63673-1c1" bus1=x_63673.3 bus2=x_63673_2.3 linecode=defaultSecondary normamps=400 emergamps=600 phases=1 length=100 units=ft
New "Line.s_mdv201_hn_2_866_c63673-1c0" bus1=x_63673.3 bus2=x_63673_1.3 linecode=defaultSecondary normamps=400 emergamps=600 phases=1 length=100 units=ft
New "Line.mdv201_hn_2_865_c39628" bus1=63673.3 bus2=39628.3 length=0.0557784 geometry=1PH-NONENONEAL_1/0_7STRACSR_1/0_6/1 normamps=218 emergamps=262 units=km enabled=true phases=1
New "Line.s_mdv201_hn_2_865_c39628-1c2" bus1=x_39628.3 bus2=x_39628_3.3 linecode=defaultSecondary normamps=400 emergamps=600 phases=1 length=100 units=ft
New "Line.s_mdv201_hn_2_865_c39628-1c1" bus1=x_39628.3 bus2=x_39628_2.3 linecode=defaultSecondary normamps=400 emergamps=600 phases=1 length=100 units=ft
New "Line.s_mdv201_hn_2_865_c39628-1c0" bus1=x_39628.3 bus2=x_39628_1.3 linecode=defaultSecondary normamps=400 emergamps=600 phases=1 length=100 units=ft
New "Line.mdv201_hn_2_861_c39629" bus1=39628.3 bus2=39629.3 length=0.051816 geometry=1PH-NONENONEAL_1/0_7STRACSR_1/0_6/1 normamps=218 emergamps=262 units=km enabled=true phases=1
New "Line.s_mdv201_hn_2_861_c39629-1c3" bus1=x_39629.3 bus2=x_39629_4.3 linecode=defaultSecondary normamps=400 emergamps=600 phases=1 length=100 units=ft
New "Line.s_mdv201_hn_2_861_c39629-1c2" bus1=x_39629.3 bus2=x_39629_3.3 linecode=defaultSecondary normamps=400 emergamps=600 phases=1 length=100 units=ft
New "Line.s_mdv201_hn_2_861_c39629-1c1" bus1=x_39629.3 bus2=x_39629_2.3 linecode=defaultSecondary normamps=400 emergamps=600 phases=1 length=100 units=ft
New "Line.s_mdv201_hn_2_861_c39629-1c0" bus1=x_39629.3 bus2=x_39629_1.3 linecode=defaultSecondary normamps=400 emergamps=600 phases=1 length=100 units=ft
New "Line.mdv201_1144259fuse" bus1=841.1.3 bus2=1144259.1.3 length=0.001524 geometry=2PH_HORIZ_LG_1C-BUSBARNONEBUSBARBUSBAR normamps=2000 emergamps=2400 units=km enabled=true phases=2
New "Line.mdv201_hn_2_517_ac1144258" bus1=1144259.1.3 bus2=1144258.1.3 length=0.012192 geometry=2PH_VERT_1C-AL_#2_7STRNONEAL_#2_7STRACSR_1/0_6/1 normamps=163 emergamps=196 units=km enabled=true phases=2
New "Line.mdv201_hn_2_518_ac8086" bus1=1144258.1.3 bus2=8086.1.3 length=0.0381 geometry=2PH_VERT_1C-AL_#2_7STRNONEAL_#2_7STRACSR_1/0_6/1 normamps=163 emergamps=196 units=km enabled=true phases=2
New "Line.s_mdv201_hn_2_518_ac8086-1c0" bus1=x_8086.3 bus2=x_8086_1.3 linecode=defaultSecondary normamps=400 emergamps=600 phases=1 length=100 units=ft
New "Line.mdv201_hn_2_519_ac8090" bus1=8086.1.3 bus2=8090.1.3 length=0.0612648 geometry=2PH_VERT_1C-AL_#2_7STRNONEAL_#2_7STRACSR_1/0_6/1 normamps=163 emergamps=196 units=km enabled=true phases=2
New "Line.s_mdv201_hn_2_519_ac8090-1c1" bus1=x_8090.3 bus2=x_8090_2.3 linecode=defaultSecondary normamps=400 emergamps=600 phases=1 length=100 units=ft
New "Line.s_mdv201_hn_2_519_ac8090-1c0" bus1=x_8090.3 bus2=x_8090_1.3 linecode=defaultSecondary normamps=400 emergamps=600 phases=1 length=100 units=ft
New "Line.mdv201_hn_2_535_c8140" bus1=8090.3 bus2=8140.3 length=0.0560832 geometry=1PH-NONENONEAL_#2_7STRACSR_1/0_6/1 normamps=163 emergamps=196 units=km enabled=true phases=1
New "Line.mdv201_1144257fuse" bus1=8140.3 bus2=1144257.3 length=0.001524 geometry=1PH-NONENONEBUSBARBUSBAR normamps=2000 emergamps=2400 units=km enabled=true phases=1
New "Line.s_mdv201_1144257fuse-1c0" bus1=x_1144257.3 bus2=x_1144257_1.3 linecode=defaultSecondary normamps=400 emergamps=600 phases=1 length=100 units=ft
New "Line.mdv201_hn_2_537_c8094" bus1=1144257.3 bus2=8094.3 length=0.0557784 geometry=1PH-NONENONEAL_#2_7STRACSR_1/0_6/1 normamps=163 emergamps=196 units=km enabled=true phases=1
New "Line.s_mdv201_hn_2_537_c8094-1c1" bus1=x_8094.3 bus2=x_8094_2.3 linecode=defaultSecondary normamps=400 emergamps=600 phases=1 length=100 units=ft
New "Line.s_mdv201_hn_2_537_c8094-1c0" bus1=x_8094.3 bus2=x_8094_1.3 linecode=defaultSecondary normamps=400 emergamps=600 phases=1 length=100 units=ft
New "Line.mdv201_hn_2_536_c8093" bus1=8094.3 bus2=8093.3 length=0.0170688 geometry=1PH-NONENONEAL_#2_7STRACSR_1/0_6/1 normamps=163 emergamps=196 units=km enabled=true phases=1
New "Line.s_mdv201_hn_2_536_c8093-1c1" bus1=x_8093.3 bus2=x_8093_2.3 linecode=defaultSecondary normamps=400 emergamps=600 phases=1 length=100 units=ft
New "Line.s_mdv201_hn_2_536_c8093-1c0" bus1=x_8093.3 bus2=x_8093_1.3 linecode=defaultSecondary normamps=400 emergamps=600 phases=1 length=100 units=ft
New "Line.mdv201_hn_2_538_c8095" bus1=8094.3 bus2=8095.3 length=0.0432816 geometry=1PH-NONENONEAL_#2_7STRACSR_1/0_6/1 normamps=163 emergamps=196 units=km enabled=true phases=1
New "Line.s_mdv201_hn_2_538_c8095-1c2" bus1=x_8095.3 bus2=x_8095_3.3 linecode=defaultSecondary normamps=400 emergamps=600 phases=1 length=100 units=ft
New "Line.s_mdv201_hn_2_538_c8095-1c1" bus1=x_8095.3 bus2=x_8095_2.3 linecode=defaultSecondary normamps=400 emergamps=600 phases=1 length=100 units=ft
New "Line.s_mdv201_hn_2_538_c8095-1c0" bus1=x_8095.3 bus2=x_8095_1.3 linecode=defaultSecondary normamps=400 emergamps=600 phases=1 length=100 units=ft
New "Line.mdv201_hn_2_539_c8098" bus1=8095.3 bus2=8098.3 length=0.041148 geometry=1PH-NONENONEAL_#2_7STRACSR_1/0_6/1 normamps=163 emergamps=196 units=km enabled=true phases=1
New "Line.s_mdv201_hn_2_539_c8098-1c2" bus1=x_8098.3 bus2=x_8098_3.3 linecode=defaultSecondary normamps=400 emergamps=600 phases=1 length=100 units=ft
New "Line.s_mdv201_hn_2_539_c8098-1c1" bus1=x_8098.3 bus2=x_8098_2.3 linecode=defaultSecondary normamps=400 emergamps=600 phases=1 length=100 units=ft
New "Line.s_mdv201_hn_2_539_c8098-1c0" bus1=x_8098.3 bus2=x_8098_1.3 linecode=defaultSecondary normamps=400 emergamps=600 phases=1 length=100 units=ft
New "Line.mdv201_hn_2_540_c8108" bus1=8098.3 bus2=8108.3 length=0.0323088 geometry=1PH-NONENONEAL_#2_7STRACSR_1/0_6/1 normamps=163 emergamps=196 units=km enabled=true phases=1
New "Line.s_mdv201_hn_2_540_c8108-1c3" bus1=x_8108.3 bus2=x_8108_4.3 linecode=defaultSecondary normamps=400 emergamps=600 phases=1 length=100 units=ft
New "Line.s_mdv201_hn_2_540_c8108-1c2" bus1=x_8108.3 bus2=x_8108_3.3 linecode=defaultSecondary normamps=400 emergamps=600 phases=1 length=100 units=ft
New "Line.s_mdv201_hn_2_540_c8108-1c1" bus1=x_8108.3 bus2=x_8108_2.3 linecode=defaultSecondary normamps=400 emergamps=600 phases=1 length=100 units=ft
New "Line.s_mdv201_hn_2_540_c8108-1c0" bus1=x_8108.3 bus2=x_8108_1.3 linecode=defaultSecondary normamps=400 emergamps=600 phases=1 length=100 units=ft
New "Line.mdv201_hn_2_520_a8092" bus1=8090.1 bus2=8092.1 length=0.0637032 geometry=1PH-AL_#2_7STRNONENONEACSR_1/0_6/1 normamps=163 emergamps=196 units=km enabled=true phases=1
New "Line.s_mdv201_hn_2_520_a8092-1a1" bus1=x_8092.1 bus2=x_8092_2.1 linecode=defaultSecondary normamps=400 emergamps=600 phases=1 length=100 units=ft
New "Line.s_mdv201_hn_2_520_a8092-1a0" bus1=x_8092.1 bus2=x_8092_1.1 linecode=defaultSecondary normamps=400 emergamps=600 phases=1 length=100 units=ft
New "Line.mdv201_c_1_387_a8097" bus1=8092.1 bus2=8097.1 length=0.0524256 geometry=1PH-AL_#2_7STRNONENONEACSR_1/0_6/1 normamps=163 emergamps=196 units=km enabled=true phases=1
New "Line.s_mdv201_c_1_387_a8097-1a1" bus1=x_8097.1 bus2=x_8097_2.1 linecode=defaultSecondary normamps=400 emergamps=600 phases=1 length=100 units=ft
New "Line.s_mdv201_c_1_387_a8097-1a0" bus1=x_8097.1 bus2=x_8097_1.1 linecode=defaultSecondary normamps=400 emergamps=600 phases=1 length=100 units=ft
New "Line.mdv201_c_1_388_a8106" bus1=8097.1 bus2=8106.1 length=0.059436 geometry=1PH-AL_#2_7STRNONENONEACSR_1/0_6/1 normamps=163 emergamps=196 units=km enabled=true phases=1
New "Line.s_mdv201_c_1_388_a8106-1a2" bus1=x_8106.1 bus2=x_8106_3.1 linecode=defaultSecondary normamps=400 emergamps=600 phases=1 length=100 units=ft
New "Line.s_mdv201_c_1_388_a8106-1a1" bus1=x_8106.1 bus2=x_8106_2.1 linecode=defaultSecondary normamps=400 emergamps=600 phases=1 length=100 units=ft
New "Line.s_mdv201_c_1_388_a8106-1a0" bus1=x_8106.1 bus2=x_8106_1.1 linecode=defaultSecondary normamps=400 emergamps=600 phases=1 length=100 units=ft
New "Line.mdv201_c_1_712_a1000985" bus1=8106.1 bus2=1000985.1 length=0.0649224 geometry=1PH-AL_#2_7STRNONENONEACSR_1/0_6/1 normamps=163 emergamps=196 units=km enabled=true phases=1
New "Line.mdv201_1000988fuse" bus1=1000985.1 bus2=1000988.1 length=0.001524 geometry=1PH-BUSBARNONENONEBUSBAR normamps=2000 emergamps=2400 units=km enabled=true phases=1
New "Line.mdv201_pb_0928_a1000987" bus1=1000988.1 bus2=1000987.1 length=0.0734568 linecode=UG_1/0AL normamps=150 emergamps=150 units=km enabled=true phases=1
New "Line.mdv201_c_1p114_a1160497" bus1=1000987.1 bus2=1160497.1 length=0.0719328 linecode=UG_1/0AL normamps=150 emergamps=150 units=km enabled=true phases=1
New "Line.c_1p114_sw" bus1=1160497.1 bus2=mdv201_8159elb_int.1 length=0.001 Switch=True units=km enabled=true phases=1
New "Line.mdv201_8159elb" bus1=mdv201_8159elb_int.1 bus2=8159.1 length=0.001524 linecode=BUSBAR normamps=2000 emergamps=2000 units=km enabled=true phases=1
New "Line.s_mdv201_8159elb-1a0" bus1=x_8159.1 bus2=x_8159_1.1 linecode=defaultSecondary normamps=400 emergamps=600 phases=1 length=100 units=ft
New "Line.mdv201_c_1_389_a1000986" bus1=1000985.1 bus2=1000986.1 length=0.0402336 geometry=1PH-AL_#2_7STRNONENONEACSR_1/0_6/1 normamps=163 emergamps=196 units=km enabled=true phases=1
New "Line.mdv201_c_1_390_a8122" bus1=1000986.1 bus2=8122.1 length=0.0323088 geometry=1PH-AL_#2_7STRNONENONEACSR_1/0_6/1 normamps=163 emergamps=196 units=km enabled=true phases=1
New "Line.s_mdv201_c_1_390_a8122-1a1" bus1=x_8122.1 bus2=x_8122_2.1 linecode=defaultSecondary normamps=400 emergamps=600 phases=1 length=100 units=ft
New "Line.s_mdv201_c_1_390_a8122-1a0" bus1=x_8122.1 bus2=x_8122_1.1 linecode=defaultSecondary normamps=400 emergamps=600 phases=1 length=100 units=ft
New "Line.mdv201_c_1_391_a8120" bus1=8122.1 bus2=8120.1 length=0.0560832 geometry=1PH-AL_#2_7STRNONENONEACSR_1/0_6/1 normamps=163 emergamps=196 units=km enabled=true phases=1
New "Line.s_mdv201_c_1_391_a8120-1a2" bus1=x_8120.1 bus2=x_8120_3.1 linecode=defaultSecondary normamps=400 emergamps=600 phases=1 length=100 units=ft
New "Line.s_mdv201_c_1_391_a8120-1a1" bus1=x_8120.1 bus2=x_8120_2.1 linecode=defaultSecondary normamps=400 emergamps=600 phases=1 length=100 units=ft
New "Line.s_mdv201_c_1_391_a8120-1a0" bus1=x_8120.1 bus2=x_8120_1.1 linecode=defaultSecondary normamps=400 emergamps=600 phases=1 length=100 units=ft
New "Line.mdv201_hn_2_534_a8119" bus1=8120.1 bus2=8119.1 length=0.0493776 geometry=1PH-AL_#2_7STRNONENONEACSR_1/0_6/1 normamps=163 emergamps=196 units=km enabled=true phases=1
New "Line.s_mdv201_hn_2_534_a8119-1a1" bus1=x_8119.1 bus2=x_8119_2.1 linecode=defaultSecondary normamps=400 emergamps=600 phases=1 length=100 units=ft
New "Line.s_mdv201_hn_2_534_a8119-1a0" bus1=x_8119.1 bus2=x_8119_1.1 linecode=defaultSecondary normamps=400 emergamps=600 phases=1 length=100 units=ft
New "Line.mdv201_hn_2_533_a8117" bus1=8119.1 bus2=8117.1 length=0.048768 geometry=1PH-AL_#2_7STRNONENONEACSR_1/0_6/1 normamps=163 emergamps=196 units=km enabled=true phases=1
New "Line.s_mdv201_hn_2_533_a8117-1a1" bus1=x_8117.1 bus2=x_8117_2.1 linecode=defaultSecondary normamps=400 emergamps=600 phases=1 length=100 units=ft
New "Line.s_mdv201_hn_2_533_a8117-1a0" bus1=x_8117.1 bus2=x_8117_1.1 linecode=defaultSecondary normamps=400 emergamps=600 phases=1 length=100 units=ft
New "Line.mdv201_hn_2_532_a8118" bus1=8117.1 bus2=8118.1 length=0.0490728 geometry=1PH-AL_#2_7STRNONENONEACSR_1/0_6/1 normamps=163 emergamps=196 units=km enabled=true phases=1
New "Line.s_mdv201_hn_2_532_a8118-1a1" bus1=x_8118.1 bus2=x_8118_2.1 linecode=defaultSecondary normamps=400 emergamps=600 phases=1 length=100 units=ft
New "Line.s_mdv201_hn_2_532_a8118-1a0" bus1=x_8118.1 bus2=x_8118_1.1 linecode=defaultSecondary normamps=400 emergamps=600 phases=1 length=100 units=ft
New "Line.mdv201_hn_2_521_c8087" bus1=8086.3 bus2=8087.3 length=0.0512064 geometry=1PH-NONENONEAL_#2_7STRACSR_1/0_6/1 normamps=163 emergamps=196 units=km enabled=true phases=1
New "Line.s_mdv201_hn_2_521_c8087-1c2" bus1=x_8087.3 bus2=x_8087_3.3 linecode=defaultSecondary normamps=400 emergamps=600 phases=1 length=100 units=ft
New "Line.s_mdv201_hn_2_521_c8087-1c1" bus1=x_8087.3 bus2=x_8087_2.3 linecode=defaultSecondary normamps=400 emergamps=600 phases=1 length=100 units=ft
New "Line.s_mdv201_hn_2_521_c8087-1c0" bus1=x_8087.3 bus2=x_8087_1.3 linecode=defaultSecondary normamps=400 emergamps=600 phases=1 length=100 units=ft
New "Line.mdv201_hn_2_522_c855" bus1=8087.3 bus2=855.3 length=0.0749808 geometry=1PH-NONENONEAL_#2_7STRACSR_1/0_6/1 normamps=163 emergamps=196 units=km enabled=true phases=1
New "Line.s_mdv201_hn_2_522_c855-1c3" bus1=x_855.3 bus2=x_855_4.3 linecode=defaultSecondary normamps=400 emergamps=600 phases=1 length=100 units=ft
New "Line.s_mdv201_hn_2_522_c855-1c2" bus1=x_855.3 bus2=x_855_3.3 linecode=defaultSecondary normamps=400 emergamps=600 phases=1 length=100 units=ft
New "Line.s_mdv201_hn_2_522_c855-1c1" bus1=x_855.3 bus2=x_855_2.3 linecode=defaultSecondary normamps=400 emergamps=600 phases=1 length=100 units=ft
New "Line.s_mdv201_hn_2_522_c855-1c0" bus1=x_855.3 bus2=x_855_1.3 linecode=defaultSecondary normamps=400 emergamps=600 phases=1 length=100 units=ft
New "Line.mdv201_hn_2_523_c856" bus1=855.3 bus2=856.3 length=0.0493776 geometry=1PH-NONENONEAL_#2_7STRACSR_1/0_6/1 normamps=163 emergamps=196 units=km enabled=true phases=1
New "Line.s_mdv201_hn_2_523_c856-1c0" bus1=x_856.3 bus2=x_856_1.3 linecode=defaultSecondary normamps=400 emergamps=600 phases=1 length=100 units=ft
New "Line.mdv201_hn_2_531_c857" bus1=856.3 bus2=857.3 length=0.0225552 geometry=1PH-NONENONEAL_#2_7STRACSR_1/0_6/1 normamps=163 emergamps=196 units=km enabled=true phases=1
New "Line.s_mdv201_hn_2_531_c857-1c3" bus1=x_857.3 bus2=x_857_4.3 linecode=defaultSecondary normamps=400 emergamps=600 phases=1 length=100 units=ft
New "Line.s_mdv201_hn_2_531_c857-1c2" bus1=x_857.3 bus2=x_857_3.3 linecode=defaultSecondary normamps=400 emergamps=600 phases=1 length=100 units=ft
New "Line.s_mdv201_hn_2_531_c857-1c1" bus1=x_857.3 bus2=x_857_2.3 linecode=defaultSecondary normamps=400 emergamps=600 phases=1 length=100 units=ft
New "Line.s_mdv201_hn_2_531_c857-1c0" bus1=x_857.3 bus2=x_857_1.3 linecode=defaultSecondary normamps=400 emergamps=600 phases=1 length=100 units=ft
New "Line.mdv201_hn_2_524_c858" bus1=857.3 bus2=858.3 length=0.0448056 geometry=1PH-NONENONEAL_#2_7STRACSR_1/0_6/1 normamps=163 emergamps=196 units=km enabled=true phases=1
New "Line.s_mdv201_hn_2_524_c858-1c1" bus1=x_858.3 bus2=x_858_2.3 linecode=defaultSecondary normamps=400 emergamps=600 phases=1 length=100 units=ft
New "Line.s_mdv201_hn_2_524_c858-1c0" bus1=x_858.3 bus2=x_858_1.3 linecode=defaultSecondary normamps=400 emergamps=600 phases=1 length=100 units=ft
New "Line.mdv201_hn_2_525_c859" bus1=858.3 bus2=859.3 length=0.0359664 geometry=1PH-NONENONEAL_#2_7STRACSR_1/0_6/1 normamps=163 emergamps=196 units=km enabled=true phases=1
New "Line.s_mdv201_hn_2_525_c859-1c0" bus1=x_859.3 bus2=x_859_1.3 linecode=defaultSecondary normamps=400 emergamps=600 phases=1 length=100 units=ft
New "Line.mdv201_hn_2_526_c860" bus1=859.3 bus2=860.3 length=0.0661416 geometry=1PH-NONENONEAL_#2_7STRACSR_1/0_6/1 normamps=163 emergamps=196 units=km enabled=true phases=1
New "Line.s_mdv201_hn_2_526_c860-1c1" bus1=x_860.3 bus2=x_860_2.3 linecode=defaultSecondary normamps=400 emergamps=600 phases=1 length=100 units=ft
New "Line.s_mdv201_hn_2_526_c860-1c0" bus1=x_860.3 bus2=x_860_1.3 linecode=defaultSecondary normamps=400 emergamps=600 phases=1 length=100 units=ft
New "Line.mdv201_hn_2_527_c8153" bus1=860.3 bus2=8153.3 length=0.0633984 geometry=1PH-NONENONEAL_#2_7STRACSR_1/0_6/1 normamps=163 emergamps=196 units=km enabled=true phases=1
New "Line.mdv201_hn_2_529_c8155" bus1=8153.3 bus2=8155.3 length=0.0588264 geometry=1PH-NONENONEAL_#2_7STRACSR_1/0_6/1 normamps=163 emergamps=196 units=km enabled=true phases=1
New "Line.mdv201_hn_2_530_c8156" bus1=8155.3 bus2=8156.3 length=0.0268224 geometry=1PH-NONENONEAL_#2_7STRACSR_1/0_6/1 normamps=163 emergamps=196 units=km enabled=true phases=1
New "Line.s_mdv201_hn_2_530_c8156-1c2" bus1=x_8156.3 bus2=x_8156_3.3 linecode=defaultSecondary normamps=400 emergamps=600 phases=1 length=100 units=ft
New "Line.s_mdv201_hn_2_530_c8156-1c1" bus1=x_8156.3 bus2=x_8156_2.3 linecode=defaultSecondary normamps=400 emergamps=600 phases=1 length=100 units=ft
New "Line.s_mdv201_hn_2_530_c8156-1c0" bus1=x_8156.3 bus2=x_8156_1.3 linecode=defaultSecondary normamps=400 emergamps=600 phases=1 length=100 units=ft
New "Line.mdv201_hn_2_528_c8154" bus1=8153.3 bus2=8154.3 length=0.0445008 geometry=1PH-NONENONEAL_#2_7STRACSR_1/0_6/1 normamps=163 emergamps=196 units=km enabled=true phases=1
New "Line.s_mdv201_hn_2_528_c8154-1c1" bus1=x_8154.3 bus2=x_8154_2.3 linecode=defaultSecondary normamps=400 emergamps=600 phases=1 length=100 units=ft
New "Line.s_mdv201_hn_2_528_c8154-1c0" bus1=x_8154.3 bus2=x_8154_1.3 linecode=defaultSecondary normamps=400 emergamps=600 phases=1 length=100 units=ft
New "Line.mdv201_hn_2_133_abc8083" bus1=841 bus2=8083 length=0.0390144 geometry=3PH_HORIZ_LG_1C-CU_#2_7STRCU_#2_7STRCU_#2_7STRACSR_1/0_6/1 normamps=224 emergamps=169 units=km enabled=true phases=3
New "Line.s_mdv201_hn_2_133_abc8083-1a3" bus1=x_8083.1 bus2=x_8083_4.1 linecode=defaultSecondary normamps=400 emergamps=600 phases=1 length=100 units=ft
New "Line.s_mdv201_hn_2_133_abc8083-1a2" bus1=x_8083.1 bus2=x_8083_3.1 linecode=defaultSecondary normamps=400 emergamps=600 phases=1 length=100 units=ft
New "Line.s_mdv201_hn_2_133_abc8083-1a1" bus1=x_8083.1 bus2=x_8083_2.1 linecode=defaultSecondary normamps=400 emergamps=600 phases=1 length=100 units=ft
New "Line.s_mdv201_hn_2_133_abc8083-1a0" bus1=x_8083.1 bus2=x_8083_1.1 linecode=defaultSecondary normamps=400 emergamps=600 phases=1 length=100 units=ft
New "Line.mdv201_hn_21000_abc8084" bus1=8083 bus2=8084 length=0.0313944 geometry=3PH_HORIZ_LG_1C-CU_#2_7STRCU_#2_7STRCU_#2_7STRACSR_1/0_6/1 normamps=224 emergamps=169 units=km enabled=true phases=3
New "Line.mdv201_hn_2_345_abc8081" bus1=8084 bus2=8081 length=0.0246888 geometry=3PH_HORIZ_LG_1C-CU_#2_7STRCU_#2_7STRCU_#2_7STRACSR_1/0_6/1 normamps=224 emergamps=169 units=km enabled=true phases=3
New "Line.mdv201_hn_2_131_abc8080" bus1=8081 bus2=8080 length=0.0539496 geometry=3PH_HORIZ_LG_1C-CU_#2_7STRCU_#2_7STRCU_#2_7STRACSR_1/0_6/1 normamps=224 emergamps=169 units=km enabled=true phases=3
New "Line.mdv201_c_1_266_abc8079" bus1=8080 bus2=8079 length=0.0536448 geometry=3PH_HORIZ_LG_1C-CU_#2_7STRCU_#2_7STRCU_#2_7STRACSR_1/0_6/1 normamps=224 emergamps=169 units=km enabled=true phases=3
New "Line.mdv201_1010738fuse" bus1=8079.1 bus2=1010738.1 length=0.001524 geometry=1PH-BUSBARNONENONEBUSBAR normamps=2000 emergamps=2400 units=km enabled=true phases=1
New "Line.mdv201_c_1_506_a8143" bus1=1010738.1 bus2=8143.1 length=0.0240792 geometry=1PH-AL_#2_7STRNONENONEACSR_1/0_6/1 normamps=163 emergamps=196 units=km enabled=true phases=1
New "Line.mdv201_c_1p022_a1160458" bus1=8143.1 bus2=1160458.1 length=0.0566928 linecode=UG_1/0AL normamps=150 emergamps=150 units=km enabled=true phases=1
New "Line.c_1p022_sw" bus1=1160458.1 bus2=mdv201_8144elb_int.1 length=0.001 Switch=True units=km enabled=true phases=1
New "Line.mdv201_8144elb" bus1=mdv201_8144elb_int.1 bus2=8144.1 length=0.001524 linecode=BUSBAR normamps=2000 emergamps=2000 units=km enabled=true phases=1
New "Line.s_mdv201_8144elb-1a3" bus1=x_8144.1 bus2=x_8144_4.1 linecode=defaultSecondary normamps=400 emergamps=600 phases=1 length=100 units=ft
New "Line.s_mdv201_8144elb-1a2" bus1=x_8144.1 bus2=x_8144_3.1 linecode=defaultSecondary normamps=400 emergamps=600 phases=1 length=100 units=ft
New "Line.s_mdv201_8144elb-1a1" bus1=x_8144.1 bus2=x_8144_2.1 linecode=defaultSecondary normamps=400 emergamps=600 phases=1 length=100 units=ft
New "Line.s_mdv201_8144elb-1a0" bus1=x_8144.1 bus2=x_8144_1.1 linecode=defaultSecondary normamps=400 emergamps=600 phases=1 length=100 units=ft
New "Line.mdv201_1160459elb-1_sw" bus1=8144.1 bus2=mdv201_1160459elb_int.1 length=0.001 Switch=True units=km enabled=true phases=1
New "Line.mdv201_1160459elb" bus1=mdv201_1160459elb_int.1 bus2=1160459.1 length=0.001524 linecode=BUSBAR normamps=2000 emergamps=2000 units=km enabled=true phases=1
New "Line.mdv201_c_1p023_a1160460" bus1=1160459.1 bus2=1160460.1 length=0.0886968 linecode=UG_1/0AL normamps=150 emergamps=150 units=km enabled=true phases=1
New "Line.c_1p023_sw" bus1=1160460.1 bus2=mdv201_8145elb_int.1 length=0.001 Switch=True units=km enabled=true phases=1
New "Line.mdv201_8145elb" bus1=mdv201_8145elb_int.1 bus2=8145.1 length=0.001524 linecode=BUSBAR normamps=2000 emergamps=2000 units=km enabled=true phases=1
New "Line.s_mdv201_8145elb-1a3" bus1=x_8145.1 bus2=x_8145_4.1 linecode=defaultSecondary normamps=400 emergamps=600 phases=1 length=100 units=ft
New "Line.s_mdv201_8145elb-1a2" bus1=x_8145.1 bus2=x_8145_3.1 linecode=defaultSecondary normamps=400 emergamps=600 phases=1 length=100 units=ft
New "Line.s_mdv201_8145elb-1a1" bus1=x_8145.1 bus2=x_8145_2.1 linecode=defaultSecondary normamps=400 emergamps=600 phases=1 length=100 units=ft
New "Line.s_mdv201_8145elb-1a0" bus1=x_8145.1 bus2=x_8145_1.1 linecode=defaultSecondary normamps=400 emergamps=600 phases=1 length=100 units=ft
New "Line.mdv201_1160461elb-1_sw" bus1=8145.1 bus2=mdv201_1160461elb_int.1 length=0.001 Switch=True units=km enabled=true phases=1
New "Line.mdv201_1160461elb" bus1=mdv201_1160461elb_int.1 bus2=1160461.1 length=0.001524 linecode=BUSBAR normamps=2000 emergamps=2000 units=km enabled=true phases=1
New "Line.mdv201_c_1p024_a8100" bus1=1160461.1 bus2=8100.1 length=0.1237488 linecode=UG_1/0AL normamps=150 emergamps=150 units=km enabled=true phases=1
New "Line.mdv201_c_1p025_a1160503" bus1=8100.1 bus2=1160503.1 length=0.1255776 linecode=UG_1/0AL normamps=150 emergamps=150 units=km enabled=true phases=1
New "Line.c_1p025_sw" bus1=1160503.1 bus2=mdv201_8101elb_int.1 length=0.001 Switch=True units=km enabled=true phases=1