New "Load.mdv201_hn_2_343_abc829-1b2" phases=1 bus1=x_829_3.2 kV=0.24 kW=4.49484066666667 pf=0.9342 status=variable model=4 CVRwatts=0.8 CVRvars=3 class=1 yearly=Residential conn=wye
New "Load.mdv201_hn_2_343_abc829-1b1" phases=1 bus1=x_829_2.2 kV=0.24 kW=4.49484066666667 pf=0.9342 status=variable model=4 CVRwatts=0.8 CVRvars=3 class=1 yearly=Residential conn=wye
New "Load.mdv201_hn_2_343_abc829-1b0" phases=1 bus1=x_829_1.2 kV=0.24 kW=4.49484066666667 pf=0.9342 status=variable model=4 CVRwatts=0.8 CVRvars=3 class=1 yearly=Residential conn=wye
New "Load.mdv201_hn_2_867_c839-1c0" phases=1 bus1=x_839_1.3 kV=0.24 kW=4.19574 pf=0.93 status=variable model=4 CVRwatts=0.8 CVRvars=3 class=1 yearly=Residential conn=wye
New "Load.mdv201_hn_2_868_c833-1c2" phases=1 bus1=x_833_3.3 kV=0.24 kW=5.53244266666667 pf=0.93 status=variable model=4 CVRwatts=0.8 CVRvars=3 class=1 yearly=Residential conn=wye
New "Load.mdv201_hn_2_868_c833-1c1" phases=1 bus1=x_833_2.3 kV=0.24 kW=5.53244266666667 pf=0.93 status=variable model=4 CVRwatts=0.8 CVRvars=3 class=1 yearly=Residential conn=wye
New "Load.mdv201_hn_2_868_c833-1c0" phases=1 bus1=x_833_1.3 kV=0.24 kW=5.53244266666667 pf=0.93 status=variable model=4 CVRwatts=0.8 CVRvars=3 class=1 yearly=Residential conn=wye
New "Load.mdv201_hn_2_869_c830-1c2" phases=1 bus1=x_830_3.3 kV=0.24 kW=9.95389666666667 pf=0.93 status=variable model=4 CVRwatts=0.8 CVRvars=3 class=1 yearly=Residential conn=wye
New "Load.mdv201_hn_2_869_c830-1c1" phases=1 bus1=x_830_2.3 kV=0.24 kW=9.95389666666667 pf=0.93 status=variable model=4 CVRwatts=0.8 CVRvars=3 class=1 yearly=Residential conn=wye
New "Load.mdv201_hn_2_869_c830-1c0" phases=1 bus1=x_830_1.3 kV=0.24 kW=9.95389666666667 pf=0.93 status=variable model=4 CVRwatts=0.8 CVRvars=3 class=1 yearly=Residential conn=wye
New "Load.mdv201_hn_2_870_c831-1c2" phases=1 bus1=x_831_3.3 kV=0.24 kW=8.61227233333333 pf=0.93 status=variable model=4 CVRwatts=0.8 CVRvars=3 class=1 yearly=Residential conn=wye
New "Load.mdv201_hn_2_870_c831-1c1" phases=1 bus1=x_831_2.3 kV=0.24 kW=8.61227233333333 pf=0.93 status=variable model=4 CVRwatts=0.8 CVRvars=3 class=1 yearly=Residential conn=wye
New "Load.mdv201_hn_2_870_c831-1c0" phases=1 bus1=x_831_1.3 kV=0.24 kW=8.61227233333333 pf=0.93 status=variable model=4 CVRwatts=0.8 CVRvars=3 class=1 yearly=Residential conn=wye
New "Load.mdv201_hn_2_871_c39630-1c2" phases=1 bus1=x_39630_3.3 kV=0.24 kW=8.00263466666667 pf=0.93 status=variable model=4 CVRwatts=0.8 CVRvars=3 class=1 yearly=Residential conn=wye
New "Load.mdv201_hn_2_871_c39630-1c1" phases=1 bus1=x_39630_2.3 kV=0.24 kW=8.00263466666667 pf=0.93 status=variable model=4 CVRwatts=0.8 CVRvars=3 class=1 yearly=Residential conn=wye
New "Load.mdv201_hn_2_871_c39630-1c0" phases=1 bus1=x_39630_1.3 kV=0.24 kW=8.00263466666667 pf=0.93 status=variable model=4 CVRwatts=0.8 CVRvars=3 class=1 yearly=Residential conn=wye
New "Load.mdv201_hn_2_872_c63667-1c2" phases=1 bus1=x_63667_3.3 kV=0.24 kW=7.75934233333333 pf=0.93 status=variable model=4 CVRwatts=0.8 CVRvars=3 class=1 yearly=Residential conn=wye
New "Load.mdv201_hn_2_872_c63667-1c1" phases=1 bus1=x_63667_2.3 kV=0.24 kW=7.75934233333333 pf=0.93 status=variable model=4 CVRwatts=0.8 CVRvars=3 class=1 yearly=Residential conn=wye
New "Load.mdv201_hn_2_872_c63667-1c0" phases=1 bus1=x_63667_1.3 kV=0.24 kW=7.75934233333333 pf=0.93 status=variable model=4 CVRwatts=0.8 CVRvars=3 class=1 yearly=Residential conn=wye
New "Load.mdv201_hn_2_874_c63669-1c2" phases=1 bus1=x_63669_3.3 kV=0.24 kW=5.34329333333333 pf=0.93 status=variable model=4 CVRwatts=0.8 CVRvars=3 class=1 yearly=Residential conn=wye
New "Load.mdv201_hn_2_874_c63669-1c1" phases=1 bus1=x_63669_2.3 kV=0.24 kW=5.34329333333333 pf=0.93 status=variable model=4 CVRwatts=0.8 CVRvars=3 class=1 yearly=Residential conn=wye
New "Load.mdv201_hn_2_874_c63669-1c0" phases=1 bus1=x_63669_1.3 kV=0.24 kW=5.34329333333333 pf=0.93 status=variable model=4 CVRwatts=0.8 CVRvars=3 class=1 yearly=Residential conn=wye
New "Load.mdv201_hn_2_875_c63670-1c1" phases=1 bus1=x_63670_2.3 kV=0.24 kW=2.193851 pf=0.93 status=variable model=4 CVRwatts=0.8 CVRvars=3 class=1 yearly=Residential conn=wye
New "Load.mdv201_hn_2_875_c63670-1c0" phases=1 bus1=x_63670_1.3 kV=0.24 kW=2.193851 pf=0.93 status=variable model=4 CVRwatts=0.8 CVRvars=3 class=1 yearly=Residential conn=wye
New "Load.mdv201_hn_2_876_c63671-1c2" phases=1 bus1=x_63671_3.3 kV=0.24 kW=6.092156 pf=0.93 status=variable model=4 CVRwatts=0.8 CVRvars=3 class=1 yearly=Residential conn=wye
New "Load.mdv201_hn_2_876_c63671-1c1" phases=1 bus1=x_63671_2.3 kV=0.24 kW=6.092156 pf=0.93 status=variable model=4 CVRwatts=0.8 CVRvars=3 class=1 yearly=Residential conn=wye
New "Load.mdv201_hn_2_876_c63671-1c0" phases=1 bus1=x_63671_1.3 kV=0.24 kW=6.092156 pf=0.93 status=variable model=4 CVRwatts=0.8 CVRvars=3 class=1 yearly=Residential conn=wye
New "Load.mdv201_hn_2_877_c63672-1c2" phases=1 bus1=x_63672_3.3 kV=0.24 kW=6.08864033333333 pf=0.93 status=variable model=4 CVRwatts=0.8 CVRvars=3 class=1 yearly=Residential conn=wye
New "Load.mdv201_hn_2_877_c63672-1c1" phases=1 bus1=x_63672_2.3 kV=0.24 kW=6.08864033333333 pf=0.93 status=variable model=4 CVRwatts=0.8 CVRvars=3 class=1 yearly=Residential conn=wye
New "Load.mdv201_hn_2_877_c63672-1c0" phases=1 bus1=x_63672_1.3 kV=0.24 kW=6.08864033333333 pf=0.93 status=variable model=4 CVRwatts=0.8 CVRvars=3 class=1 yearly=Residential conn=wye
New "Load.mdv201_hn_2_866_c63673-1c3" phases=1 bus1=x_63673_4.3 kV=0.24 kW=6.017797 pf=0.93 status=variable model=4 CVRwatts=0.8 CVRvars=3 class=1 yearly=Residential conn=wye
New "Load.mdv201_hn_2_866_c63673-1c2" phases=1 bus1=x_63673_3.3 kV=0.24 kW=6.017797 pf=0.93 status=variable model=4 CVRwatts=0.8 CVRvars=3 class=1 yearly=Residential conn=wye
New "Load.mdv201_hn_2_866_c63673-1c1" phases=1 bus1=x_63673_2.3 kV=0.24 kW=6.017797 pf=0.93 status=variable model=4 CVRwatts=0.8 CVRvars=3 class=1 yearly=Residential conn=wye
New "Load.mdv201_hn_2_866_c63673-1c0" phases=1 bus1=x_63673_1.3 kV=0.24 kW=6.017797 pf=0.93 status=variable model=4 CVRwatts=0.8 CVRvars=3 class=1 yearly=Residential conn=wye
New "Load.mdv201_hn_2_865_c39628-1c2" phases=1 bus1=x_39628_3.3 kV=0.24 kW=5.60275833333333 pf=0.93 status=variable model=4 CVRwatts=0.8 CVRvars=3 class=1 yearly=Residential conn=wye
New "Load.mdv201_hn_2_865_c39628-1c1" phases=1 bus1=x_39628_2.3 kV=0.24 kW=5.60275833333333 pf=0.93 status=variable model=4 CVRwatts=0.8 CVRvars=3 class=1 yearly=Residential conn=wye
New "Load.mdv201_hn_2_865_c39628-1c0" phases=1 bus1=x_39628_1.3 kV=0.24 kW=5.60275833333333 pf=0.93 status=variable model=4 CVRwatts=0.8 CVRvars=3 class=1 yearly=Residential conn=wye
New "Load.mdv201_hn_2_861_c39629-1c3" phases=1 bus1=x_39629_4.3 kV=0.24 kW=6.02676225 pf=0.93 status=variable model=4 CVRwatts=0.8 CVRvars=3 class=1 yearly=Residential conn=wye
New "Load.mdv201_hn_2_861_c39629-1c2" phases=1 bus1=x_39629_3.3 kV=0.24 kW=6.02676225 pf=0.93 status=variable model=4 CVRwatts=0.8 CVRvars=3 class=1 yearly=Residential conn=wye
New "Load.mdv201_hn_2_861_c39629-1c1" phases=1 bus1=x_39629_2.3 kV=0.24 kW=6.02676225 pf=0.93 status=variable model=4 CVRwatts=0.8 CVRvars=3 class=1 yearly=Residential conn=wye
New "Load.mdv201_hn_2_861_c39629-1c0" phases=1 bus1=x_39629_1.3 kV=0.24 kW=6.02676225 pf=0.93 status=variable model=4 CVRwatts=0.8 CVRvars=3 class=1 yearly=Residential conn=wye
New "Load.mdv201_hn_2_518_ac8086-1c0" phases=1 bus1=x_8086_1.3 kV=0.24 kW=4.105033 pf=0.93 status=variable model=4 CVRwatts=0.8 CVRvars=3 class=1 yearly=Residential conn=wye
New "Load.mdv201_hn_2_519_ac8090-1c1" phases=1 bus1=x_8090_2.3 kV=0.24 kW=5.8980845 pf=0.93 status=variable model=4 CVRwatts=0.8 CVRvars=3 class=1 yearly=Residential conn=wye
New "Load.mdv201_hn_2_519_ac8090-1c0" phases=1 bus1=x_8090_1.3 kV=0.24 kW=5.8980845 pf=0.93 status=variable model=4 CVRwatts=0.8 CVRvars=3 class=1 yearly=Residential conn=wye
New "Load.mdv201_1144257fuse-1c0" phases=1 bus1=x_1144257_1.3 kV=0.24 kW=5.149222 pf=0.93 status=variable model=4 CVRwatts=0.8 CVRvars=3 class=1 yearly=Residential conn=wye
New "Load.mdv201_hn_2_537_c8094-1c1" phases=1 bus1=x_8094_2.3 kV=0.24 kW=7.2818985 pf=0.93 status=variable model=4 CVRwatts=0.8 CVRvars=3 class=1 yearly=Residential conn=wye
New "Load.mdv201_hn_2_537_c8094-1c0" phases=1 bus1=x_8094_1.3 kV=0.24 kW=7.2818985 pf=0.93 status=variable model=4 CVRwatts=0.8 CVRvars=3 class=1 yearly=Residential conn=wye
New "Load.mdv201_hn_2_536_c8093-1c1" phases=1 bus1=x_8093_2.3 kV=0.24 kW=4.265353 pf=0.93 status=variable model=4 CVRwatts=0.8 CVRvars=3 class=1 yearly=Residential conn=wye
New "Load.mdv201_hn_2_536_c8093-1c0" phases=1 bus1=x_8093_1.3 kV=0.24 kW=4.265353 pf=0.93 status=variable model=4 CVRwatts=0.8 CVRvars=3 class=1 yearly=Residential conn=wye
New "Load.mdv201_hn_2_538_c8095-1c2" phases=1 bus1=x_8095_3.3 kV=0.24 kW=3.323122 pf=0.93 status=variable model=4 CVRwatts=0.8 CVRvars=3 class=1 yearly=Residential conn=wye
New "Load.mdv201_hn_2_538_c8095-1c1" phases=1 bus1=x_8095_2.3 kV=0.24 kW=3.323122 pf=0.93 status=variable model=4 CVRwatts=0.8 CVRvars=3 class=1 yearly=Residential conn=wye
New "Load.mdv201_hn_2_538_c8095-1c0" phases=1 bus1=x_8095_1.3 kV=0.24 kW=3.323122 pf=0.93 status=variable model=4 CVRwatts=0.8 CVRvars=3 class=1 yearly=Residential conn=wye
New "Load.mdv201_hn_2_539_c8098-1c2" phases=1 bus1=x_8098_3.3 kV=0.24 kW=3.60157233333333 pf=0.93 status=variable model=4 CVRwatts=0.8 CVRvars=3 class=1 yearly=Residential conn=wye
New "Load.mdv201_hn_2_539_c8098-1c1" phases=1 bus1=x_8098_2.3 kV=0.24 kW=3.60157233333333 pf=0.93 status=variable model=4 CVRwatts=0.8 CVRvars=3 class=1 yearly=Residential conn=wye
New "Load.mdv201_hn_2_539_c8098-1c0" phases=1 bus1=x_8098_1.3 kV=0.24 kW=3.60157233333333 pf=0.93 status=variable model=4 CVRwatts=0.8 CVRvars=3 class=1 yearly=Residential conn=wye
New "Load.mdv201_hn_2_540_c8108-1c3" phases=1 bus1=x_8108_4.3 kV=0.24 kW=3.84451325 pf=0.93 status=variable model=4 CVRwatts=0.8 CVRvars=3 class=1 yearly=Residential conn=wye
New "Load.mdv201_hn_2_540_c8108-1c2" phases=1 bus1=x_8108_3.3 kV=0.24 kW=3.84451325 pf=0.93 status=variable model=4 CVRwatts=0.8 CVRvars=3 class=1 yearly=Residential conn=wye
New "Load.mdv201_hn_2_540_c8108-1c1" phases=1 bus1=x_8108_2.3 kV=0.24 kW=3.84451325 pf=0.93 status=variable model=4 CVRwatts=0.8 CVRvars=3 class=1 yearly=Residential conn=wye
New "Load.mdv201_hn_2_540_c8108-1c0" phases=1 bus1=x_8108_1.3 kV=0.24 kW=3.84451325 pf=0.93 status=variable model=4 CVRwatts=0.8 CVRvars=3 class=1 yearly=Residential conn=wye
New "Load.mdv201_hn_2_520_a8092-1a1" phases=1 bus1=x_8092_2.1 kV=0.24 kW=5.9493805 pf=0.9234 status=variable model=4 CVRwatts=0.8 CVRvars=3 class=1 yearly=Residential conn=wye
New "Load.mdv201_hn_2_520_a8092-1a0" phases=1 bus1=x_8092_1.1 kV=0.24 kW=5.9493805 pf=0.9234 status=variable model=4 CVRwatts=0.8 CVRvars=3 class=1 yearly=Residential conn=wye
New "Load.mdv201_c_1_387_a8097-1a1" phases=1 bus1=x_8097_2.1 kV=0.24 kW=4.578777 pf=0.9234 status=variable model=4 CVRwatts=0.8 CVRvars=3 class=1 yearly=Residential conn=wye
New "Load.mdv201_c_1_387_a8097-1a0" phases=1 bus1=x_8097_1.1 kV=0.24 kW=4.578777 pf=0.9234 status=variable model=4 CVRwatts=0.8 CVRvars=3 class=1 yearly=Residential conn=wye
New "Load.mdv201_c_1_388_a8106-1a2" phases=1 bus1=x_8106_3.1 kV=0.24 kW=2.799012 pf=0.9234 status=variable model=4 CVRwatts=0.8 CVRvars=3 class=2 yearly=Commercial_SM conn=wye
New "Load.mdv201_c_1_388_a8106-1a1" phases=1 bus1=x_8106_2.1 kV=0.24 kW=2.799012 pf=0.9234 status=variable model=4 CVRwatts=0.8 CVRvars=3 class=2 yearly=Commercial_SM conn=wye
New "Load.mdv201_c_1_388_a8106-1a0" phases=1 bus1=x_8106_1.1 kV=0.24 kW=2.799012 pf=0.9234 status=variable model=4 CVRwatts=0.8 CVRvars=3 class=2 yearly=Commercial_SM conn=wye
New "Load.mdv201_8159elb-1a0" phases=1 bus1=x_8159_1.1 kV=0.24 kW=4.276868 pf=0.9234 status=variable model=4 CVRwatts=0.8 CVRvars=3 class=1 yearly=Residential conn=wye
New "Load.mdv201_c_1_390_a8122-1a1" phases=1 bus1=x_8122_2.1 kV=0.24 kW=6.774668 pf=0.9234 status=variable model=4 CVRwatts=0.8 CVRvars=3 class=1 yearly=Residential conn=wye
New "Load.mdv201_c_1_390_a8122-1a0" phases=1 bus1=x_8122_1.1 kV=0.24 kW=6.774668 pf=0.9234 status=variable model=4 CVRwatts=0.8 CVRvars=3 class=1 yearly=Residential conn=wye
New "Load.mdv201_c_1_391_a8120-1a2" phases=1 bus1=x_8120_3.1 kV=0.24 kW=8.14004833333333 pf=0.9234 status=variable model=4 CVRwatts=0.8 CVRvars=3 class=1 yearly=Residential conn=wye
New "Load.mdv201_c_1_391_a8120-1a1" phases=1 bus1=x_8120_2.1 kV=0.24 kW=8.14004833333333 pf=0.9234 status=variable model=4 CVRwatts=0.8 CVRvars=3 class=1 yearly=Residential conn=wye
New "Load.mdv201_c_1_391_a8120-1a0" phases=1 bus1=x_8120_1.1 kV=0.24 kW=8.14004833333333 pf=0.9234 status=variable model=4 CVRwatts=0.8 CVRvars=3 class=1 yearly=Residential conn=wye
New "Load.mdv201_hn_2_534_a8119-1a1" phases=1 bus1=x_8119_2.1 kV=0.24 kW=6.6754245 pf=0.9234 status=variable model=4 CVRwatts=0.8 CVRvars=3 class=1 yearly=Residential conn=wye
New "Load.mdv201_hn_2_534_a8119-1a0" phases=1 bus1=x_8119_1.1 kV=0.24 kW=6.6754245 pf=0.9234 status=variable model=4 CVRwatts=0.8 CVRvars=3 class=1 yearly=Residential conn=wye
New "Load.mdv201_hn_2_533_a8117-1a1" phases=1 bus1=x_8117_2.1 kV=0.24 kW=3.9864505 pf=0.9234 status=variable model=4 CVRwatts=0.8 CVRvars=3 class=1 yearly=Residential conn=wye
New "Load.mdv201_hn_2_533_a8117-1a0" phases=1 bus1=x_8117_1.1 kV=0.24 kW=3.9864505 pf=0.9234 status=variable model=4 CVRwatts=0.8 CVRvars=3 class=1 yearly=Residential conn=wye
New "Load.mdv201_hn_2_532_a8118-1a1" phases=1 bus1=x_8118_2.1 kV=0.24 kW=4.180759 pf=0.9234 status=variable model=4 CVRwatts=0.8 CVRvars=3 class=1 yearly=Residential conn=wye
New "Load.mdv201_hn_2_532_a8118-1a0" phases=1 bus1=x_8118_1.1 kV=0.24 kW=4.180759 pf=0.9234 status=variable model=4 CVRwatts=0.8 CVRvars=3 class=1 yearly=Residential conn=wye
New "Load.mdv201_hn_2_521_c8087-1c2" phases=1 bus1=x_8087_3.3 kV=0.24 kW=4.59864966666667 pf=0.93 status=variable model=4 CVRwatts=0.8 CVRvars=3 class=1 yearly=Residential conn=wye
New "Load.mdv201_hn_2_521_c8087-1c1" phases=1 bus1=x_8087_2.3 kV=0.24 kW=4.59864966666667 pf=0.93 status=variable model=4 CVRwatts=0.8 CVRvars=3 class=1 yearly=Residential conn=wye
New "Load.mdv201_hn_2_521_c8087-1c0" phases=1 bus1=x_8087_1.3 kV=0.24 kW=4.59864966666667 pf=0.93 status=variable model=4 CVRwatts=0.8 CVRvars=3 class=1 yearly=Residential conn=wye
New "Load.mdv201_hn_2_522_c855-1c3" phases=1 bus1=x_855_4.3 kV=0.24 kW=5.074863 pf=0.93 status=variable model=4 CVRwatts=0.8 CVRvars=3 class=1 yearly=Residential conn=wye
New "Load.mdv201_hn_2_522_c855-1c2" phases=1 bus1=x_855_3.3 kV=0.24 kW=5.074863 pf=0.93 status=variable model=4 CVRwatts=0.8 CVRvars=3 class=1 yearly=Residential conn=wye
New "Load.mdv201_hn_2_522_c855-1c1" phases=1 bus1=x_855_2.3 kV=0.24 kW=5.074863 pf=0.93 status=variable model=4 CVRwatts=0.8 CVRvars=3 class=1 yearly=Residential conn=wye
New "Load.mdv201_hn_2_522_c855-1c0" phases=1 bus1=x_855_1.3 kV=0.24 kW=5.074863 pf=0.93 status=variable model=4 CVRwatts=0.8 CVRvars=3 class=1 yearly=Residential conn=wye
New "Load.mdv201_hn_2_523_c856-1c0" phases=1 bus1=x_856_1.3 kV=0.24 kW=6.153331 pf=0.93 status=variable model=4 CVRwatts=0.8 CVRvars=3 class=1 yearly=Residential conn=wye
New "Load.mdv201_hn_2_531_c857-1c3" phases=1 bus1=x_857_4.3 kV=0.24 kW=3.7733185 pf=0.93 status=variable model=4 CVRwatts=0.8 CVRvars=3 class=1 yearly=Residential conn=wye
New "Load.mdv201_hn_2_531_c857-1c2" phases=1 bus1=x_857_3.3 kV=0.24 kW=3.7733185 pf=0.93 status=variable model=4 CVRwatts=0.8 CVRvars=3 class=1 yearly=Residential conn=wye
New "Load.mdv201_hn_2_531_c857-1c1" phases=1 bus1=x_857_2.3 kV=0.24 kW=3.7733185 pf=0.93 status=variable model=4 CVRwatts=0.8 CVRvars=3 class=1 yearly=Residential conn=wye
New "Load.mdv201_hn_2_531_c857-1c0" phases=1 bus1=x_857_1.3 kV=0.24 kW=3.7733185 pf=0.93 status=variable model=4 CVRwatts=0.8 CVRvars=3 class=1 yearly=Residential conn=wye
New "Load.mdv201_hn_2_524_c858-1c1" phases=1 bus1=x_858_2.3 kV=0.24 kW=8.929396 pf=0.93 status=variable model=4 CVRwatts=0.8 CVRvars=3 class=1 yearly=Residential conn=wye
New "Load.mdv201_hn_2_524_c858-1c0" phases=1 bus1=x_858_1.3 kV=0.24 kW=8.929396 pf=0.93 status=variable model=4 CVRwatts=0.8 CVRvars=3 class=1 yearly=Residential conn=wye
New "Load.mdv201_hn_2_525_c859-1c0" phases=1 bus1=x_859_1.3 kV=0.24 kW=4.4763 pf=0.93 status=variable model=4 CVRwatts=0.8 CVRvars=3 class=1 yearly=Residential conn=wye
New "Load.mdv201_hn_2_526_c860-1c1" phases=1 bus1=x_860_2.3 kV=0.24 kW=3.7432585 pf=0.93 status=variable model=4 CVRwatts=0.8 CVRvars=3 class=1 yearly=Residential conn=wye
New "Load.mdv201_hn_2_526_c860-1c0" phases=1 bus1=x_860_1.3 kV=0.24 kW=3.7432585 pf=0.93 status=variable model=4 CVRwatts=0.8 CVRvars=3 class=1 yearly=Residential conn=wye
New "Load.mdv201_hn_2_530_c8156-1c2" phases=1 bus1=x_8156_3.3 kV=0.24 kW=5.29407233333333 pf=0.93 status=variable model=4 CVRwatts=0.8 CVRvars=3 class=1 yearly=Residential conn=wye
New "Load.mdv201_hn_2_530_c8156-1c1" phases=1 bus1=x_8156_2.3 kV=0.24 kW=5.29407233333333 pf=0.93 status=variable model=4 CVRwatts=0.8 CVRvars=3 class=1 yearly=Residential conn=wye
New "Load.mdv201_hn_2_530_c8156-1c0" phases=1 bus1=x_8156_1.3 kV=0.24 kW=5.29407233333333 pf=0.93 status=variable model=4 CVRwatts=0.8 CVRvars=3 class=1 yearly=Residential conn=wye
New "Load.mdv201_hn_2_528_c8154-1c1" phases=1 bus1=x_8154_2.3 kV=0.24 kW=3.8065425 pf=0.93 status=variable model=4 CVRwatts=0.8 CVRvars=3 class=1 yearly=Residential conn=wye
New "Load.mdv201_hn_2_528_c8154-1c0" phases=1 bus1=x_8154_1.3 kV=0.24 kW=3.8065425 pf=0.93 status=variable model=4 CVRwatts=0.8 CVRvars=3 class=1 yearly=Residential conn=wye
New "Load.mdv201_hn_2_133_abc8083-1a3" phases=1 bus1=x_8083_4.1 kV=0.24 kW=4.955902 pf=0.9234 status=variable model=4 CVRwatts=0.8 CVRvars=3 class=1 yearly=Residential conn=wye
New "Load.mdv201_hn_2_133_abc8083-1a2" phases=1 bus1=x_8083_3.1 kV=0.24 kW=4.955902 pf=0.9234 status=variable model=4 CVRwatts=0.8 CVRvars=3 class=1 yearly=Residential conn=wye
New "Load.mdv201_hn_2_133_abc8083-1a1" phases=1 bus1=x_8083_2.1 kV=0.24 kW=4.955902 pf=0.9234 status=variable model=4 CVRwatts=0.8 CVRvars=3 class=1 yearly=Residential conn=wye
New "Load.mdv201_hn_2_133_abc8083-1a0" phases=1 bus1=x_8083_1.1 kV=0.24 kW=4.955902 pf=0.9234 status=variable model=4 CVRwatts=0.8 CVRvars=3 class=1 yearly=Residential conn=wye
New "Load.mdv201_8144elb-1a3" phases=1 bus1=x_8144_4.1 kV=0.24 kW=7.798442 pf=0.9234 status=variable model=4 CVRwatts=0.8 CVRvars=3 class=1 yearly=Residential conn=wye
New "Load.mdv201_8144elb-1a2" phases=1 bus1=x_8144_3.1 kV=0.24 kW=7.798442 pf=0.9234 status=variable model=4 CVRwatts=0.8 CVRvars=3 class=1 yearly=Residential conn=wye
New "Load.mdv201_8144elb-1a1" phases=1 bus1=x_8144_2.1 kV=0.24 kW=7.798442 pf=0.9234 status=variable model=4 CVRwatts=0.8 CVRvars=3 class=1 yearly=Residential conn=wye
New "Load.mdv201_8144elb-1a0" phases=1 bus1=x_8144_1.1 kV=0.24 kW=7.798442 pf=0.9234 status=variable model=4 CVRwatts=0.8 CVRvars=3 class=1 yearly=Residential conn=wye
New "Load.mdv201_8145elb-1a3" phases=1 bus1=x_8145_4.1 kV=0.24 kW=6.77205625 pf=0.9234 status=variable model=4 CVRwatts=0.8 CVRvars=3 class=1 yearly=Residential conn=wye
New "Load.mdv201_8145elb-1a2" phases=1 bus1=x_8145_3.1 kV=0.24 kW=6.77205625 pf=0.9234 status=variable model=4 CVRwatts=0.8 CVRvars=3 class=1 yearly=Residential conn=wye
New "Load.mdv201_8145elb-1a1" phases=1 bus1=x_8145_2.1 kV=0.24 kW=6.77205625 pf=0.9234 status=variable model=4 CVRwatts=0.8 CVRvars=3 class=1 yearly=Residential conn=wye
New "Load.mdv201_8145elb-1a0" phases=1 bus1=x_8145_1.1 kV=0.24 kW=6.77205625 pf=0.9234 status=variable model=4 CVRwatts=0.8 CVRvars=3 class=1 yearly=Residential conn=wye
New "Load.mdv201_8101elb-1a2" phases=1 bus1=x_8101_3.1 kV=0.24 kW=5.50121833333333 pf=0.9234 status=variable model=4 CVRwatts=0.8 CVRvars=3 class=1 yearly=Residential conn=wye
New "Load.mdv201_8101elb-1a1" phases=1 bus1=x_8101_2.1 kV=0.24 kW=5.50121833333333 pf=0.9234 status=variable model=4 CVRwatts=0.8 CVRvars=3 class=1 yearly=Residential conn=wye
New "Load.mdv201_8101elb-1a0" phases=1 bus1=x_8101_1.1 kV=0.24 kW=5.50121833333333 pf=0.9234 status=variable model=4 CVRwatts=0.8 CVRvars=3 class=1 yearly=Residential conn=wye
New "Load.mdv201_8105elb-1a2" phases=1 bus1=x_8105_3.1 kV=0.24 kW=6.007534 pf=0.9234 status=variable model=4 CVRwatts=0.8 CVRvars=3 class=1 yearly=Residential conn=wye
New "Load.mdv201_8105elb-1a1" phases=1 bus1=x_8105_2.1 kV=0.24 kW=6.007534 pf=0.9234 status=variable model=4 CVRwatts=0.8 CVRvars=3 class=1 yearly=Residential conn=wye
New "Load.mdv201_8105elb-1a0" phases=1 bus1=x_8105_1.1 kV=0.24 kW=6.007534 pf=0.9234 status=variable model=4 CVRwatts=0.8 CVRvars=3 class=1 yearly=Residential conn=wye
New "Load.mdv201_8109elb-1a2" phases=1 bus1=x_8109_3.1 kV=0.24 kW=5.91421033333333 pf=0.9234 status=variable model=4 CVRwatts=0.8 CVRvars=3 class=1 yearly=Residential conn=wye
New "Load.mdv201_8109elb-1a1" phases=1 bus1=x_8109_2.1 kV=0.24 kW=5.91421033333333 pf=0.9234 status=variable model=4 CVRwatts=0.8 CVRvars=3 class=1 yearly=Residential conn=wye
New "Load.mdv201_8109elb-1a0" phases=1 bus1=x_8109_1.1 kV=0.24 kW=5.91421033333333 pf=0.9234 status=variable model=4 CVRwatts=0.8 CVRvars=3 class=1 yearly=Residential conn=wye
New "Load.mdv201_8102elb-1a3" phases=1 bus1=x_8102_4.1 kV=0.24 kW=6.21629325 pf=0.9234 status=variable model=4 CVRwatts=0.8 CVRvars=3 class=1 yearly=Residential conn=wye
New "Load.mdv201_8102elb-1a2" phases=1 bus1=x_8102_3.1 kV=0.24 kW=6.21629325 pf=0.9234 status=variable model=4 CVRwatts=0.8 CVRvars=3 class=1 yearly=Residential conn=wye
New "Load.mdv201_8102elb-1a1" phases=1 bus1=x_8102_2.1 kV=0.24 kW=6.21629325 pf=0.9234 status=variable model=4 CVRwatts=0.8 CVRvars=3 class=1 yearly=Residential conn=wye
New "Load.mdv201_8102elb-1a0" phases=1 bus1=x_8102_1.1 kV=0.24 kW=6.21629325 pf=0.9234 status=variable model=4 CVRwatts=0.8 CVRvars=3 class=1 yearly=Residential conn=wye
New "Load.mdv201_8107elb-1a3" phases=1 bus1=x_8107_4.1 kV=0.24 kW=5.4651775 pf=0.9234 status=variable model=4 CVRwatts=0.8 CVRvars=3 class=1 yearly=Residential conn=wye
New "Load.mdv201_8107elb-1a2" phases=1 bus1=x_8107_3.1 kV=0.24 kW=5.4651775 pf=0.9234 status=variable model=4 CVRwatts=0.8 CVRvars=3 class=1 yearly=Residential conn=wye
New "Load.mdv201_8107elb-1a1" phases=1 bus1=x_8107_2.1 kV=0.24 kW=5.4651775 pf=0.9234 status=variable model=4 CVRwatts=0.8 CVRvars=3 class=1 yearly=Residential conn=wye
New "Load.mdv201_8107elb-1a0" phases=1 bus1=x_8107_1.1 kV=0.24 kW=5.4651775 pf=0.9234 status=variable model=4 CVRwatts=0.8 CVRvars=3 class=1 yearly=Residential conn=wye
New "Load.mdv201_8146elb-1a3" phases=1 bus1=x_8146_4.1 kV=0.24 kW=5.5356925 pf=0.9234 status=variable model=4 CVRwatts=0.8 CVRvars=3 class=1 yearly=Residential conn=wye
New "Load.mdv201_8146elb-1a2" phases=1 bus1=x_8146_3.1 kV=0.24 kW=5.5356925 pf=0.9234 status=variable model=4 CVRwatts=0.8 CVRvars=3 class=1 yearly=Residential conn=wye
New "Load.mdv201_8146elb-1a1" phases=1 bus1=x_8146_2.1 kV=0.24 kW=5.5356925 pf=0.9234 status=variable model=4 CVRwatts=0.8 CVRvars=3 class=1 yearly=Residential conn=wye
New "Load.mdv201_8146elb-1a0" phases=1 bus1=x_8146_1.1 kV=0.24 kW=5.5356925 pf=0.9234 status=variable model=4 CVRwatts=0.8 CVRvars=3 class=1 yearly=Residential conn=wye
New "Load.mdv201_8147elb-1a2" phases=1 bus1=x_8147_3.1 kV=0.24 kW=3.75732033333333 pf=0.9234 status=variable model=4 CVRwatts=0.8 CVRvars=3 class=1 yearly=Residential conn=wye
New "Load.mdv201_8147elb-1a1" phases=1 bus1=x_8147_2.1 kV=0.24 kW=3.75732033333333 pf=0.9234 status=variable model=4 CVRwatts=0.8 CVRvars=3 class=1 yearly=Residential conn=wye
New "Load.mdv201_8147elb-1a0" phases=1 bus1=x_8147_1.1 kV=0.24 kW=3.75732033333333 pf=0.9234 status=variable model=4 CVRwatts=0.8 CVRvars=3 class=1 yearly=Residential conn=wye
New "Load.mdv201_c_1_067_abc8072-1b0" phases=1 bus1=x_8072_1.2 kV=0.24 kW=4.134376 pf=0.9342 status=variable model=4 CVRwatts=0.8 CVRvars=3 class=1 yearly=Residential conn=wye
New "Load.mdv201_c_1_068_abc69490-1b0" phases=1 bus1=x_69490_1.2 kV=0.24 kW=3.359309 pf=0.9342 status=variable model=4 CVRwatts=0.8 CVRvars=3 class=1 yearly=Residential conn=wye
New "Load.mdv201_c_1_069_abc69484-1b2" phases=1 bus1=x_69484_3.2 kV=0.24 kW=5.41793133333333 pf=0.9342 status=variable model=4 CVRwatts=0.8 CVRvars=3 class=1 yearly=Residential conn=wye
New "Load.mdv201_c_1_069_abc69484-1b1" phases=1 bus1=x_69484_2.2 kV=0.24 kW=5.41793133333333 pf=0.9342 status=variable model=4 CVRwatts=0.8 CVRvars=3 class=1 yearly=Residential conn=wye
New "Load.mdv201_c_1_069_abc69484-1b0" phases=1 bus1=x_69484_1.2 kV=0.24 kW=5.41793133333333 pf=0.9342 status=variable model=4 CVRwatts=0.8 CVRvars=3 class=1 yearly=Residential conn=wye
New "Load.mdv201_hn_2_101_abc69487-1a4" phases=1 bus1=x_69487_5.1 kV=0.24 kW=5.7811892 pf=0.9234 status=variable model=4 CVRwatts=0.8 CVRvars=3 class=1 yearly=Residential conn=wye
New "Load.mdv201_hn_2_101_abc69487-1a3" phases=1 bus1=x_69487_4.1 kV=0.24 kW=5.7811892 pf=0.9234 status=variable model=4 CVRwatts=0.8 CVRvars=3 class=1 yearly=Residential conn=wye
New "Load.mdv201_hn_2_101_abc69487-1a2" phases=1 bus1=x_69487_3.1 kV=0.24 kW=5.7811892 pf=0.9234 status=variable model=4 CVRwatts=0.8 CVRvars=3 class=1 yearly=Residential conn=wye
New "Load.mdv201_hn_2_101_abc69487-1a1" phases=1 bus1=x_69487_2.1 kV=0.24 kW=5.7811892 pf=0.9234 status=variable model=4 CVRwatts=0.8 CVRvars=3 class=1 yearly=Residential conn=wye
New "Load.mdv201_hn_2_101_abc69487-1a0" phases=1 bus1=x_69487_1.1 kV=0.24 kW=5.7811892 pf=0.9234 status=variable model=4 CVRwatts=0.8 CVRvars=3 class=1 yearly=Residential conn=wye
New "Load.mdv201_hn_2_893_a39590-1a1" phases=1 bus1=x_39590_2.1 kV=0.24 kW=5.3748135 pf=0.9234 status=variable model=4 CVRwatts=0.8 CVRvars=3 class=1 yearly=Residential conn=wye
New "Load.mdv201_hn_2_893_a39590-1a0" phases=1 bus1=x_39590_1.1 kV=0.24 kW=5.3748135 pf=0.9234 status=variable model=4 CVRwatts=0.8 CVRvars=3 class=1 yearly=Residential conn=wye
New "Load.mdv201_hn_2_107_a39589-1a1" phases=1 bus1=x_39589_2.1 kV=0.24 kW=6.582449 pf=0.9234 status=variable model=4 CVRwatts=0.8 CVRvars=3 class=1 yearly=Residential conn=wye
New "Load.mdv201_hn_2_107_a39589-1a0" phases=1 bus1=x_39589_1.1 kV=0.24 kW=6.582449 pf=0.9234 status=variable model=4 CVRwatts=0.8 CVRvars=3 class=1 yearly=Residential conn=wye
New "Load.mdv201_hn_2_108_a39577-1a1" phases=1 bus1=x_39577_2.1 kV=0.24 kW=4.697869 pf=0.9234 status=variable model=4 CVRwatts=0.8 CVRvars=3 class=1 yearly=Residential conn=wye
New "Load.mdv201_hn_2_108_a39577-1a0" phases=1 bus1=x_39577_1.1 kV=0.24 kW=4.697869 pf=0.9234 status=variable model=4 CVRwatts=0.8 CVRvars=3 class=1 yearly=Residential conn=wye
New "Load.mdv201_hn_1_167_a39572-1a0" phases=1 bus1=x_39572_1.1 kV=0.24 kW=12.0283 pf=0.9234 status=variable model=4 CVRwatts=0.8 CVRvars=3 class=2 yearly=Commercial_MD conn=wye
New "Load.mdv201_hn_1_238_a39569-1a1" phases=1 bus1=x_39569_2.1 kV=0.24 kW=6.554243 pf=0.9234 status=variable model=4 CVRwatts=0.8 CVRvars=3 class=1 yearly=Residential conn=wye
New "Load.mdv201_hn_1_238_a39569-1a0" phases=1 bus1=x_39569_1.1 kV=0.24 kW=6.554243 pf=0.9234 status=variable model=4 CVRwatts=0.8 CVRvars=3 class=1 yearly=Residential conn=wye
New "Load.mdv201_hn_1_401_a39574-1a0" phases=1 bus1=x_39574_1.1 kV=0.24 kW=1.652664 pf=0.9234 status=variable model=4 CVRwatts=0.8 CVRvars=3 class=2 yearly=Commercial_SM conn=wye
New "Load.mdv201_112113fuse-1a1" phases=1 bus1=x_112113_2.1 kV=0.24 kW=2.650321 pf=0.9234 status=variable model=4 CVRwatts=0.8 CVRvars=3 class=1 yearly=Residential conn=wye
New "Load.mdv201_112113fuse-1a0" phases=1 bus1=x_112113_1.1 kV=0.24 kW=2.650321 pf=0.9234 status=variable model=4 CVRwatts=0.8 CVRvars=3 class=1 yearly=Residential conn=wye
New "Load.mdv201_hn_1_274_a94747-1a0" phases=1 bus1=x_94747_1.1 kV=0.24 kW=0.359366 pf=0.9234 status=variable model=4 CVRwatts=0.8 CVRvars=3 class=2 yearly=Commercial_SM conn=wye
New "Load.mdv201_hn_1_275_a94744-1a0" phases=1 bus1=x_94744_1.1 kV=0.24 kW=6.052803 pf=0.9234 status=variable model=4 CVRwatts=0.8 CVRvars=3 class=2 yearly=Commercial_SM conn=wye
New "Load.mdv201_hn_2_907_a39581-1a1" phases=1 bus1=x_39581_2.1 kV=0.24 kW=7.2280535 pf=0.9234 status=variable model=4 CVRwatts=0.8 CVRvars=3 class=1 yearly=Residential conn=wye
New "Load.mdv201_hn_2_907_a39581-1a0" phases=1 bus1=x_39581_1.1 kV=0.24 kW=7.2280535 pf=0.9234 status=variable model=4 CVRwatts=0.8 CVRvars=3 class=1 yearly=Residential conn=wye
New "Load.mdv201_hn_2_096_abc39575-1a1" phases=1 bus1=x_39575_2.1 kV=0.24 kW=6.250245 pf=0.9234 status=variable model=4 CVRwatts=0.8 CVRvars=3 class=1 yearly=Residential conn=wye
New "Load.mdv201_hn_2_096_abc39575-1a0" phases=1 bus1=x_39575_1.1 kV=0.24 kW=6.250245 pf=0.9234 status=variable model=4 CVRwatts=0.8 CVRvars=3 class=1 yearly=Residential conn=wye
New "Load.mdv201_hn_2_915_abc39576-1b0" phases=1 bus1=x_39576_1.2 kV=0.24 kW=7.183247 pf=0.9342 status=variable model=4 CVRwatts=0.8 CVRvars=3 class=1 yearly=Residential conn=wye
New "Load.mdv201_hn_2_110_abc94729-1c0" phases=1 bus1=x_94729_1.3 kV=0.24 kW=1.229822 pf=0.93 status=variable model=4 CVRwatts=0.8 CVRvars=3 class=1 yearly=Residential conn=wye
New "Load.mdv201_hn_2_351_abc69616-1a0" phases=1 bus1=x_69616_1.1 kV=0.24 kW=3.787964 pf=0.9234 status=variable model=4 CVRwatts=0.8 CVRvars=3 class=1 yearly=Residential conn=wye
New "Load.mdv201_hn_2_111_abc69617-1a2" phases=1 bus1=x_69617_3.1 kV=0.24 kW=4.84725666666667 pf=0.9234 status=variable model=4 CVRwatts=0.8 CVRvars=3 class=1 yearly=Residential conn=wye
New "Load.mdv201_hn_2_111_abc69617-1a1" phases=1 bus1=x_69617_2.1 kV=0.24 kW=4.84725666666667 pf=0.9234 status=variable model=4 CVRwatts=0.8 CVRvars=3 class=1 yearly=Residential conn=wye