New "Load.mdv201_hn_2_436_abc63639-1b0" phases=1 bus1=x_63639_1.2 kV=0.24 kW=7.101012 pf=0.9342 status=variable model=4 CVRwatts=0.8 CVRvars=3 class=1 yearly=Residential conn=wye
New "Load.mdv201_hn_2_435_abc63643-1b1" phases=1 bus1=x_63643_2.2 kV=0.24 kW=3.3171635 pf=0.9342 status=variable model=4 CVRwatts=0.8 CVRvars=3 class=1 yearly=Residential conn=wye
New "Load.mdv201_hn_2_435_abc63643-1b0" phases=1 bus1=x_63643_1.2 kV=0.24 kW=3.3171635 pf=0.9342 status=variable model=4 CVRwatts=0.8 CVRvars=3 class=1 yearly=Residential conn=wye
New "Load.mdv201_hn_2_434_abc63645-1b1" phases=1 bus1=x_63645_2.2 kV=0.24 kW=4.8220685 pf=0.9342 status=variable model=4 CVRwatts=0.8 CVRvars=3 class=1 yearly=Residential conn=wye
New "Load.mdv201_hn_2_434_abc63645-1b0" phases=1 bus1=x_63645_1.2 kV=0.24 kW=4.8220685 pf=0.9342 status=variable model=4 CVRwatts=0.8 CVRvars=3 class=1 yearly=Residential conn=wye
New "Load.mdv201_hn_2_408_abc63655-1b1" phases=1 bus1=x_63655_2.2 kV=0.24 kW=4.883745 pf=0.9342 status=variable model=4 CVRwatts=0.8 CVRvars=3 class=1 yearly=Residential conn=wye
New "Load.mdv201_hn_2_408_abc63655-1b0" phases=1 bus1=x_63655_1.2 kV=0.24 kW=4.883745 pf=0.9342 status=variable model=4 CVRwatts=0.8 CVRvars=3 class=1 yearly=Residential conn=wye
New "Load.mdv201_hn_2_395_abc63657-1b0" phases=1 bus1=x_63657_1.2 kV=0.24 kW=2.808333 pf=0.9342 status=variable model=4 CVRwatts=0.8 CVRvars=3 class=1 yearly=Residential conn=wye
New "Load.mdv201_hn_2_283_abc14857-1b1" phases=1 bus1=x_14857_2.2 kV=0.24 kW=1.813287 pf=0.9342 status=variable model=4 CVRwatts=0.8 CVRvars=3 class=2 yearly=Commercial_SM conn=wye
New "Load.mdv201_hn_2_283_abc14857-1b0" phases=1 bus1=x_14857_1.2 kV=0.24 kW=1.813287 pf=0.9342 status=variable model=4 CVRwatts=0.8 CVRvars=3 class=2 yearly=Commercial_SM conn=wye
New "Load.mdv201_hn_2_964_a14870-1a3" phases=1 bus1=x_14870_4.1 kV=0.24 kW=4.245006 pf=0.9234 status=variable model=4 CVRwatts=0.8 CVRvars=3 class=1 yearly=Residential conn=wye
New "Load.mdv201_hn_2_964_a14870-1a2" phases=1 bus1=x_14870_3.1 kV=0.24 kW=4.245006 pf=0.9234 status=variable model=4 CVRwatts=0.8 CVRvars=3 class=1 yearly=Residential conn=wye
New "Load.mdv201_hn_2_964_a14870-1a1" phases=1 bus1=x_14870_2.1 kV=0.24 kW=4.245006 pf=0.9234 status=variable model=4 CVRwatts=0.8 CVRvars=3 class=1 yearly=Residential conn=wye
New "Load.mdv201_hn_2_964_a14870-1a0" phases=1 bus1=x_14870_1.1 kV=0.24 kW=4.245006 pf=0.9234 status=variable model=4 CVRwatts=0.8 CVRvars=3 class=1 yearly=Residential conn=wye
New "Load.mdv201_hn_2_966_a63718-1a3" phases=1 bus1=x_63718_4.1 kV=0.24 kW=5.0112695 pf=0.9234 status=variable model=4 CVRwatts=0.8 CVRvars=3 class=1 yearly=Residential conn=wye
New "Load.mdv201_hn_2_966_a63718-1a2" phases=1 bus1=x_63718_3.1 kV=0.24 kW=5.0112695 pf=0.9234 status=variable model=4 CVRwatts=0.8 CVRvars=3 class=1 yearly=Residential conn=wye
New "Load.mdv201_hn_2_966_a63718-1a1" phases=1 bus1=x_63718_2.1 kV=0.24 kW=5.0112695 pf=0.9234 status=variable model=4 CVRwatts=0.8 CVRvars=3 class=1 yearly=Residential conn=wye
New "Load.mdv201_hn_2_966_a63718-1a0" phases=1 bus1=x_63718_1.1 kV=0.24 kW=5.0112695 pf=0.9234 status=variable model=4 CVRwatts=0.8 CVRvars=3 class=1 yearly=Residential conn=wye
New "Load.mdv201_hn_2_967_a63715-1a2" phases=1 bus1=x_63715_3.1 kV=0.24 kW=4.796416 pf=0.9234 status=variable model=4 CVRwatts=0.8 CVRvars=3 class=1 yearly=Residential conn=wye
New "Load.mdv201_hn_2_967_a63715-1a1" phases=1 bus1=x_63715_2.1 kV=0.24 kW=4.796416 pf=0.9234 status=variable model=4 CVRwatts=0.8 CVRvars=3 class=1 yearly=Residential conn=wye
New "Load.mdv201_hn_2_967_a63715-1a0" phases=1 bus1=x_63715_1.1 kV=0.24 kW=4.796416 pf=0.9234 status=variable model=4 CVRwatts=0.8 CVRvars=3 class=1 yearly=Residential conn=wye
New "Load.mdv201_hn_2_968_a63713-1a3" phases=1 bus1=x_63713_4.1 kV=0.24 kW=4.7767415 pf=0.9234 status=variable model=4 CVRwatts=0.8 CVRvars=3 class=1 yearly=Residential conn=wye
New "Load.mdv201_hn_2_968_a63713-1a2" phases=1 bus1=x_63713_3.1 kV=0.24 kW=4.7767415 pf=0.9234 status=variable model=4 CVRwatts=0.8 CVRvars=3 class=1 yearly=Residential conn=wye
New "Load.mdv201_hn_2_968_a63713-1a1" phases=1 bus1=x_63713_2.1 kV=0.24 kW=4.7767415 pf=0.9234 status=variable model=4 CVRwatts=0.8 CVRvars=3 class=1 yearly=Residential conn=wye
New "Load.mdv201_hn_2_968_a63713-1a0" phases=1 bus1=x_63713_1.1 kV=0.24 kW=4.7767415 pf=0.9234 status=variable model=4 CVRwatts=0.8 CVRvars=3 class=1 yearly=Residential conn=wye
New "Load.mdv201_hn_2_969_a63709-1a1" phases=1 bus1=x_63709_2.1 kV=0.24 kW=6.7694445 pf=0.9234 status=variable model=4 CVRwatts=0.8 CVRvars=3 class=1 yearly=Residential conn=wye
New "Load.mdv201_hn_2_969_a63709-1a0" phases=1 bus1=x_63709_1.1 kV=0.24 kW=6.7694445 pf=0.9234 status=variable model=4 CVRwatts=0.8 CVRvars=3 class=1 yearly=Residential conn=wye
New "Load.mdv201_hn_2_970_a63710-1a3" phases=1 bus1=x_63710_4.1 kV=0.24 kW=5.09170875 pf=0.9234 status=variable model=4 CVRwatts=0.8 CVRvars=3 class=1 yearly=Residential conn=wye
New "Load.mdv201_hn_2_970_a63710-1a2" phases=1 bus1=x_63710_3.1 kV=0.24 kW=5.09170875 pf=0.9234 status=variable model=4 CVRwatts=0.8 CVRvars=3 class=1 yearly=Residential conn=wye
New "Load.mdv201_hn_2_970_a63710-1a1" phases=1 bus1=x_63710_2.1 kV=0.24 kW=5.09170875 pf=0.9234 status=variable model=4 CVRwatts=0.8 CVRvars=3 class=1 yearly=Residential conn=wye
New "Load.mdv201_hn_2_970_a63710-1a0" phases=1 bus1=x_63710_1.1 kV=0.24 kW=5.09170875 pf=0.9234 status=variable model=4 CVRwatts=0.8 CVRvars=3 class=1 yearly=Residential conn=wye
New "Load.mdv201_hn_2_094_abc51012-1b0" phases=1 bus1=x_51012_1.2 kV=0.24 kW=10.398645 pf=0.9342 status=variable model=4 CVRwatts=0.8 CVRvars=3 class=1 yearly=Residential conn=wye
New "Load.mdv201_hn_2_729_b28246-1b0" phases=1 bus1=x_28246_1.2 kV=0.24 kW=4.853935 pf=0.9342 status=variable model=4 CVRwatts=0.8 CVRvars=3 class=1 yearly=Residential conn=wye
New "Load.mdv201_hn_2_731_b14852-1b0" phases=1 bus1=x_14852_1.2 kV=0.24 kW=4.263897 pf=0.9342 status=variable model=4 CVRwatts=0.8 CVRvars=3 class=1 yearly=Residential conn=wye
New "Load.mdv201_hn_2_394_abc63658-1b0" phases=1 bus1=x_63658_1.2 kV=0.24 kW=5.361737 pf=0.9342 status=variable model=4 CVRwatts=0.8 CVRvars=3 class=1 yearly=Residential conn=wye
New "Load.mdv201_hn_2_392_b63661-1b3" phases=1 bus1=x_63661_4.2 kV=0.24 kW=3.6281155 pf=0.9342 status=variable model=4 CVRwatts=0.8 CVRvars=3 class=1 yearly=Residential conn=wye
New "Load.mdv201_hn_2_392_b63661-1b2" phases=1 bus1=x_63661_3.2 kV=0.24 kW=3.6281155 pf=0.9342 status=variable model=4 CVRwatts=0.8 CVRvars=3 class=1 yearly=Residential conn=wye
New "Load.mdv201_hn_2_392_b63661-1b1" phases=1 bus1=x_63661_2.2 kV=0.24 kW=3.6281155 pf=0.9342 status=variable model=4 CVRwatts=0.8 CVRvars=3 class=1 yearly=Residential conn=wye
New "Load.mdv201_hn_2_392_b63661-1b0" phases=1 bus1=x_63661_1.2 kV=0.24 kW=3.6281155 pf=0.9342 status=variable model=4 CVRwatts=0.8 CVRvars=3 class=1 yearly=Residential conn=wye
New "Load.mdv201_hn_2_391_b63644-1b1" phases=1 bus1=x_63644_2.2 kV=0.24 kW=3.621434 pf=0.9342 status=variable model=4 CVRwatts=0.8 CVRvars=3 class=1 yearly=Residential conn=wye
New "Load.mdv201_hn_2_391_b63644-1b0" phases=1 bus1=x_63644_1.2 kV=0.24 kW=3.621434 pf=0.9342 status=variable model=4 CVRwatts=0.8 CVRvars=3 class=1 yearly=Residential conn=wye
New "Load.mdv201_hn_2_390_b63640-1b2" phases=1 bus1=x_63640_3.2 kV=0.24 kW=5.130108 pf=0.9342 status=variable model=4 CVRwatts=0.8 CVRvars=3 class=1 yearly=Residential conn=wye
New "Load.mdv201_hn_2_390_b63640-1b1" phases=1 bus1=x_63640_2.2 kV=0.24 kW=5.130108 pf=0.9342 status=variable model=4 CVRwatts=0.8 CVRvars=3 class=1 yearly=Residential conn=wye
New "Load.mdv201_hn_2_390_b63640-1b0" phases=1 bus1=x_63640_1.2 kV=0.24 kW=5.130108 pf=0.9342 status=variable model=4 CVRwatts=0.8 CVRvars=3 class=1 yearly=Residential conn=wye
New "Load.mdv201_hn_2_397_b63634-1b4" phases=1 bus1=x_63634_5.2 kV=0.24 kW=5.328843 pf=0.9342 status=variable model=4 CVRwatts=0.8 CVRvars=3 class=1 yearly=Residential conn=wye
New "Load.mdv201_hn_2_397_b63634-1b3" phases=1 bus1=x_63634_4.2 kV=0.24 kW=5.328843 pf=0.9342 status=variable model=4 CVRwatts=0.8 CVRvars=3 class=1 yearly=Residential conn=wye
New "Load.mdv201_hn_2_397_b63634-1b2" phases=1 bus1=x_63634_3.2 kV=0.24 kW=5.328843 pf=0.9342 status=variable model=4 CVRwatts=0.8 CVRvars=3 class=1 yearly=Residential conn=wye
New "Load.mdv201_hn_2_397_b63634-1b1" phases=1 bus1=x_63634_2.2 kV=0.24 kW=5.328843 pf=0.9342 status=variable model=4 CVRwatts=0.8 CVRvars=3 class=1 yearly=Residential conn=wye
New "Load.mdv201_hn_2_397_b63634-1b0" phases=1 bus1=x_63634_1.2 kV=0.24 kW=5.328843 pf=0.9342 status=variable model=4 CVRwatts=0.8 CVRvars=3 class=1 yearly=Residential conn=wye
New "Load.mdv201_hn_2_398_b63633-1b2" phases=1 bus1=x_63633_3.2 kV=0.24 kW=4.31940566666667 pf=0.9342 status=variable model=4 CVRwatts=0.8 CVRvars=3 class=1 yearly=Residential conn=wye
New "Load.mdv201_hn_2_398_b63633-1b1" phases=1 bus1=x_63633_2.2 kV=0.24 kW=4.31940566666667 pf=0.9342 status=variable model=4 CVRwatts=0.8 CVRvars=3 class=1 yearly=Residential conn=wye
New "Load.mdv201_hn_2_398_b63633-1b0" phases=1 bus1=x_63633_1.2 kV=0.24 kW=4.31940566666667 pf=0.9342 status=variable model=4 CVRwatts=0.8 CVRvars=3 class=1 yearly=Residential conn=wye
New "Load.mdv201_hn_2_399_b63641-1b1" phases=1 bus1=x_63641_2.2 kV=0.24 kW=4.8230965 pf=0.9342 status=variable model=4 CVRwatts=0.8 CVRvars=3 class=1 yearly=Residential conn=wye
New "Load.mdv201_hn_2_399_b63641-1b0" phases=1 bus1=x_63641_1.2 kV=0.24 kW=4.8230965 pf=0.9342 status=variable model=4 CVRwatts=0.8 CVRvars=3 class=1 yearly=Residential conn=wye
New "Load.mdv201_hn_2_400_b63637-1b2" phases=1 bus1=x_63637_3.2 kV=0.24 kW=6.61856566666667 pf=0.9342 status=variable model=4 CVRwatts=0.8 CVRvars=3 class=1 yearly=Residential conn=wye
New "Load.mdv201_hn_2_400_b63637-1b1" phases=1 bus1=x_63637_2.2 kV=0.24 kW=6.61856566666667 pf=0.9342 status=variable model=4 CVRwatts=0.8 CVRvars=3 class=1 yearly=Residential conn=wye
New "Load.mdv201_hn_2_400_b63637-1b0" phases=1 bus1=x_63637_1.2 kV=0.24 kW=6.61856566666667 pf=0.9342 status=variable model=4 CVRwatts=0.8 CVRvars=3 class=1 yearly=Residential conn=wye
New "Load.mdv201_hn_2_401_b63632-1b1" phases=1 bus1=x_63632_2.2 kV=0.24 kW=3.521724 pf=0.9342 status=variable model=4 CVRwatts=0.8 CVRvars=3 class=1 yearly=Residential conn=wye
New "Load.mdv201_hn_2_401_b63632-1b0" phases=1 bus1=x_63632_1.2 kV=0.24 kW=3.521724 pf=0.9342 status=variable model=4 CVRwatts=0.8 CVRvars=3 class=1 yearly=Residential conn=wye
New "Load.mdv201_hn_2_402_b793-1b2" phases=1 bus1=x_793_3.2 kV=0.24 kW=4.35024366666667 pf=0.9342 status=variable model=4 CVRwatts=0.8 CVRvars=3 class=1 yearly=Residential conn=wye
New "Load.mdv201_hn_2_402_b793-1b1" phases=1 bus1=x_793_2.2 kV=0.24 kW=4.35024366666667 pf=0.9342 status=variable model=4 CVRwatts=0.8 CVRvars=3 class=1 yearly=Residential conn=wye
New "Load.mdv201_hn_2_402_b793-1b0" phases=1 bus1=x_793_1.2 kV=0.24 kW=4.35024366666667 pf=0.9342 status=variable model=4 CVRwatts=0.8 CVRvars=3 class=1 yearly=Residential conn=wye
New "Load.mdv201_hn_2_403_b792-1b1" phases=1 bus1=x_792_2.2 kV=0.24 kW=5.3751005 pf=0.9342 status=variable model=4 CVRwatts=0.8 CVRvars=3 class=1 yearly=Residential conn=wye
New "Load.mdv201_hn_2_403_b792-1b0" phases=1 bus1=x_792_1.2 kV=0.24 kW=5.3751005 pf=0.9342 status=variable model=4 CVRwatts=0.8 CVRvars=3 class=1 yearly=Residential conn=wye
New "Load.mdv201_hn_2_404_b799-1b1" phases=1 bus1=x_799_2.2 kV=0.24 kW=3.3212755 pf=0.9342 status=variable model=4 CVRwatts=0.8 CVRvars=3 class=1 yearly=Residential conn=wye
New "Load.mdv201_hn_2_404_b799-1b0" phases=1 bus1=x_799_1.2 kV=0.24 kW=3.3212755 pf=0.9342 status=variable model=4 CVRwatts=0.8 CVRvars=3 class=1 yearly=Residential conn=wye
New "Load.mdv201_hn_2_389_b63636-1b2" phases=1 bus1=x_63636_3.2 kV=0.24 kW=5.10543733333333 pf=0.9342 status=variable model=4 CVRwatts=0.8 CVRvars=3 class=1 yearly=Residential conn=wye
New "Load.mdv201_hn_2_389_b63636-1b1" phases=1 bus1=x_63636_2.2 kV=0.24 kW=5.10543733333333 pf=0.9342 status=variable model=4 CVRwatts=0.8 CVRvars=3 class=1 yearly=Residential conn=wye
New "Load.mdv201_hn_2_389_b63636-1b0" phases=1 bus1=x_63636_1.2 kV=0.24 kW=5.10543733333333 pf=0.9342 status=variable model=4 CVRwatts=0.8 CVRvars=3 class=1 yearly=Residential conn=wye
New "Load.mdv201_hn_2_388_b802-1b2" phases=1 bus1=x_802_3.2 kV=0.24 kW=4.37011733333333 pf=0.9342 status=variable model=4 CVRwatts=0.8 CVRvars=3 class=1 yearly=Residential conn=wye
New "Load.mdv201_hn_2_388_b802-1b1" phases=1 bus1=x_802_2.2 kV=0.24 kW=4.37011733333333 pf=0.9342 status=variable model=4 CVRwatts=0.8 CVRvars=3 class=1 yearly=Residential conn=wye
New "Load.mdv201_hn_2_388_b802-1b0" phases=1 bus1=x_802_1.2 kV=0.24 kW=4.37011733333333 pf=0.9342 status=variable model=4 CVRwatts=0.8 CVRvars=3 class=1 yearly=Residential conn=wye
New "Load.mdv201_hn_2_405_b803-1b1" phases=1 bus1=x_803_2.2 kV=0.24 kW=3.3726725 pf=0.9342 status=variable model=4 CVRwatts=0.8 CVRvars=3 class=1 yearly=Residential conn=wye
New "Load.mdv201_hn_2_405_b803-1b0" phases=1 bus1=x_803_1.2 kV=0.24 kW=3.3726725 pf=0.9342 status=variable model=4 CVRwatts=0.8 CVRvars=3 class=1 yearly=Residential conn=wye
New "Load.mdv201_hn_2_406_b806-1b3" phases=1 bus1=x_806_4.2 kV=0.24 kW=6.3357105 pf=0.9342 status=variable model=4 CVRwatts=0.8 CVRvars=3 class=1 yearly=Residential conn=wye
New "Load.mdv201_hn_2_406_b806-1b2" phases=1 bus1=x_806_3.2 kV=0.24 kW=6.3357105 pf=0.9342 status=variable model=4 CVRwatts=0.8 CVRvars=3 class=1 yearly=Residential conn=wye
New "Load.mdv201_hn_2_406_b806-1b1" phases=1 bus1=x_806_2.2 kV=0.24 kW=6.3357105 pf=0.9342 status=variable model=4 CVRwatts=0.8 CVRvars=3 class=1 yearly=Residential conn=wye
New "Load.mdv201_hn_2_406_b806-1b0" phases=1 bus1=x_806_1.2 kV=0.24 kW=6.3357105 pf=0.9342 status=variable model=4 CVRwatts=0.8 CVRvars=3 class=1 yearly=Residential conn=wye
New "Load.mdv201_hn_2_407_b809-1b2" phases=1 bus1=x_809_3.2 kV=0.24 kW=4.119985 pf=0.9342 status=variable model=4 CVRwatts=0.8 CVRvars=3 class=1 yearly=Residential conn=wye
New "Load.mdv201_hn_2_407_b809-1b1" phases=1 bus1=x_809_2.2 kV=0.24 kW=4.119985 pf=0.9342 status=variable model=4 CVRwatts=0.8 CVRvars=3 class=1 yearly=Residential conn=wye
New "Load.mdv201_hn_2_407_b809-1b0" phases=1 bus1=x_809_1.2 kV=0.24 kW=4.119985 pf=0.9342 status=variable model=4 CVRwatts=0.8 CVRvars=3 class=1 yearly=Residential conn=wye
New "Load.mdv201_hn_2_425_b813-1b2" phases=1 bus1=x_813_3.2 kV=0.24 kW=6.502751 pf=0.9342 status=variable model=4 CVRwatts=0.8 CVRvars=3 class=1 yearly=Residential conn=wye
New "Load.mdv201_hn_2_425_b813-1b1" phases=1 bus1=x_813_2.2 kV=0.24 kW=6.502751 pf=0.9342 status=variable model=4 CVRwatts=0.8 CVRvars=3 class=1 yearly=Residential conn=wye
New "Load.mdv201_hn_2_425_b813-1b0" phases=1 bus1=x_813_1.2 kV=0.24 kW=6.502751 pf=0.9342 status=variable model=4 CVRwatts=0.8 CVRvars=3 class=1 yearly=Residential conn=wye
New "Load.mdv201_hn_2_426_b816-1b0" phases=1 bus1=x_816_1.2 kV=0.24 kW=3.881503 pf=0.9342 status=variable model=4 CVRwatts=0.8 CVRvars=3 class=1 yearly=Residential conn=wye
New "Load.mdv201_hn_2_428_b812-1b3" phases=1 bus1=x_812_4.2 kV=0.24 kW=4.276232 pf=0.9342 status=variable model=4 CVRwatts=0.8 CVRvars=3 class=1 yearly=Residential conn=wye
New "Load.mdv201_hn_2_428_b812-1b2" phases=1 bus1=x_812_3.2 kV=0.24 kW=4.276232 pf=0.9342 status=variable model=4 CVRwatts=0.8 CVRvars=3 class=1 yearly=Residential conn=wye
New "Load.mdv201_hn_2_428_b812-1b1" phases=1 bus1=x_812_2.2 kV=0.24 kW=4.276232 pf=0.9342 status=variable model=4 CVRwatts=0.8 CVRvars=3 class=1 yearly=Residential conn=wye
New "Load.mdv201_hn_2_428_b812-1b0" phases=1 bus1=x_812_1.2 kV=0.24 kW=4.276232 pf=0.9342 status=variable model=4 CVRwatts=0.8 CVRvars=3 class=1 yearly=Residential conn=wye
New "Load.mdv201_hn_2_429_b807-1b2" phases=1 bus1=x_807_3.2 kV=0.24 kW=6.356098 pf=0.9342 status=variable model=4 CVRwatts=0.8 CVRvars=3 class=1 yearly=Residential conn=wye
New "Load.mdv201_hn_2_429_b807-1b1" phases=1 bus1=x_807_2.2 kV=0.24 kW=6.356098 pf=0.9342 status=variable model=4 CVRwatts=0.8 CVRvars=3 class=1 yearly=Residential conn=wye
New "Load.mdv201_hn_2_429_b807-1b0" phases=1 bus1=x_807_1.2 kV=0.24 kW=6.356098 pf=0.9342 status=variable model=4 CVRwatts=0.8 CVRvars=3 class=1 yearly=Residential conn=wye
New "Load.mdv201_hn_2_430_b797-1b1" phases=1 bus1=x_797_2.2 kV=0.24 kW=3.539199 pf=0.9342 status=variable model=4 CVRwatts=0.8 CVRvars=3 class=1 yearly=Residential conn=wye
New "Load.mdv201_hn_2_430_b797-1b0" phases=1 bus1=x_797_1.2 kV=0.24 kW=3.539199 pf=0.9342 status=variable model=4 CVRwatts=0.8 CVRvars=3 class=1 yearly=Residential conn=wye
New "Load.mdv201_hn_2_431_b789-1b2" phases=1 bus1=x_789_3.2 kV=0.24 kW=5.167799 pf=0.9342 status=variable model=4 CVRwatts=0.8 CVRvars=3 class=1 yearly=Residential conn=wye
New "Load.mdv201_hn_2_431_b789-1b1" phases=1 bus1=x_789_2.2 kV=0.24 kW=5.167799 pf=0.9342 status=variable model=4 CVRwatts=0.8 CVRvars=3 class=1 yearly=Residential conn=wye
New "Load.mdv201_hn_2_431_b789-1b0" phases=1 bus1=x_789_1.2 kV=0.24 kW=5.167799 pf=0.9342 status=variable model=4 CVRwatts=0.8 CVRvars=3 class=1 yearly=Residential conn=wye
New "Load.mdv201_hn_2_432_b786-1b1" phases=1 bus1=x_786_2.2 kV=0.24 kW=4.0470015 pf=0.9342 status=variable model=4 CVRwatts=0.8 CVRvars=3 class=1 yearly=Residential conn=wye
New "Load.mdv201_hn_2_432_b786-1b0" phases=1 bus1=x_786_1.2 kV=0.24 kW=4.0470015 pf=0.9342 status=variable model=4 CVRwatts=0.8 CVRvars=3 class=1 yearly=Residential conn=wye
New "Load.mdv201_hn_2_433_b787-1b4" phases=1 bus1=x_787_5.2 kV=0.24 kW=4.2519726 pf=0.9342 status=variable model=4 CVRwatts=0.8 CVRvars=3 class=1 yearly=Residential conn=wye
New "Load.mdv201_hn_2_433_b787-1b3" phases=1 bus1=x_787_4.2 kV=0.24 kW=4.2519726 pf=0.9342 status=variable model=4 CVRwatts=0.8 CVRvars=3 class=1 yearly=Residential conn=wye
New "Load.mdv201_hn_2_433_b787-1b2" phases=1 bus1=x_787_3.2 kV=0.24 kW=4.2519726 pf=0.9342 status=variable model=4 CVRwatts=0.8 CVRvars=3 class=1 yearly=Residential conn=wye
New "Load.mdv201_hn_2_433_b787-1b1" phases=1 bus1=x_787_2.2 kV=0.24 kW=4.2519726 pf=0.9342 status=variable model=4 CVRwatts=0.8 CVRvars=3 class=1 yearly=Residential conn=wye
New "Load.mdv201_hn_2_433_b787-1b0" phases=1 bus1=x_787_1.2 kV=0.24 kW=4.2519726 pf=0.9342 status=variable model=4 CVRwatts=0.8 CVRvars=3 class=1 yearly=Residential conn=wye
New "Load.mdv201_hn_2_427_b826-1b1" phases=1 bus1=x_826_2.2 kV=0.24 kW=6.225207 pf=0.9342 status=variable model=4 CVRwatts=0.8 CVRvars=3 class=1 yearly=Residential conn=wye
New "Load.mdv201_hn_2_427_b826-1b0" phases=1 bus1=x_826_1.2 kV=0.24 kW=6.225207 pf=0.9342 status=variable model=4 CVRwatts=0.8 CVRvars=3 class=1 yearly=Residential conn=wye
New "Load.mdv201_hn_2_387_b804-1b2" phases=1 bus1=x_804_3.2 kV=0.24 kW=4.63395533333333 pf=0.9342 status=variable model=4 CVRwatts=0.8 CVRvars=3 class=1 yearly=Residential conn=wye
New "Load.mdv201_hn_2_387_b804-1b1" phases=1 bus1=x_804_2.2 kV=0.24 kW=4.63395533333333 pf=0.9342 status=variable model=4 CVRwatts=0.8 CVRvars=3 class=1 yearly=Residential conn=wye
New "Load.mdv201_hn_2_387_b804-1b0" phases=1 bus1=x_804_1.2 kV=0.24 kW=4.63395533333333 pf=0.9342 status=variable model=4 CVRwatts=0.8 CVRvars=3 class=1 yearly=Residential conn=wye
New "Load.mdv201_hn_2_386_b811-1b2" phases=1 bus1=x_811_3.2 kV=0.24 kW=5.89421033333333 pf=0.9342 status=variable model=4 CVRwatts=0.8 CVRvars=3 class=1 yearly=Residential conn=wye
New "Load.mdv201_hn_2_386_b811-1b1" phases=1 bus1=x_811_2.2 kV=0.24 kW=5.89421033333333 pf=0.9342 status=variable model=4 CVRwatts=0.8 CVRvars=3 class=1 yearly=Residential conn=wye
New "Load.mdv201_hn_2_386_b811-1b0" phases=1 bus1=x_811_1.2 kV=0.24 kW=5.89421033333333 pf=0.9342 status=variable model=4 CVRwatts=0.8 CVRvars=3 class=1 yearly=Residential conn=wye
New "Load.mdv201_hn_2_143_abc63642-1a0" phases=1 bus1=x_63642_1.1 kV=0.24 kW=2.41736 pf=0.9234 status=variable model=4 CVRwatts=0.8 CVRvars=3 class=2 yearly=Commercial_SM conn=wye
New "Load.mdv201_hn_2_141_abc800-1a1" phases=1 bus1=x_800_2.1 kV=0.24 kW=7.7274045 pf=0.9234 status=variable model=4 CVRwatts=0.8 CVRvars=3 class=1 yearly=Residential conn=wye
New "Load.mdv201_hn_2_141_abc800-1a0" phases=1 bus1=x_800_1.1 kV=0.24 kW=7.7274045 pf=0.9234 status=variable model=4 CVRwatts=0.8 CVRvars=3 class=1 yearly=Residential conn=wye
New "Load.mdv201_hn_2_250_abc801-1a1" phases=1 bus1=x_801_2.1 kV=0.24 kW=6.576181 pf=0.9234 status=variable model=4 CVRwatts=0.8 CVRvars=3 class=1 yearly=Residential conn=wye
New "Load.mdv201_hn_2_250_abc801-1a0" phases=1 bus1=x_801_1.1 kV=0.24 kW=6.576181 pf=0.9234 status=variable model=4 CVRwatts=0.8 CVRvars=3 class=1 yearly=Residential conn=wye
New "Load.mdv201_hn_2_136_abc1010734-1b2" phases=1 bus1=x_1010734_3.2 kV=0.24 kW=5.699587 pf=0.9342 status=variable model=4 CVRwatts=0.8 CVRvars=3 class=1 yearly=Residential conn=wye
New "Load.mdv201_hn_2_136_abc1010734-1b1" phases=1 bus1=x_1010734_2.2 kV=0.24 kW=5.699587 pf=0.9342 status=variable model=4 CVRwatts=0.8 CVRvars=3 class=1 yearly=Residential conn=wye
New "Load.mdv201_hn_2_136_abc1010734-1b0" phases=1 bus1=x_1010734_1.2 kV=0.24 kW=5.699587 pf=0.9342 status=variable model=4 CVRwatts=0.8 CVRvars=3 class=1 yearly=Residential conn=wye
New "Load.mdv201_hn_2_541_abc821-1b0" phases=1 bus1=x_821_1.2 kV=0.24 kW=6.282772 pf=0.9342 status=variable model=4 CVRwatts=0.8 CVRvars=3 class=1 yearly=Residential conn=wye
New "Load.mdv201_hn_2_226_abc822-1b1" phases=1 bus1=x_822_2.2 kV=0.24 kW=4.5249935 pf=0.9342 status=variable model=4 CVRwatts=0.8 CVRvars=3 class=1 yearly=Residential conn=wye
New "Load.mdv201_hn_2_226_abc822-1b0" phases=1 bus1=x_822_1.2 kV=0.24 kW=4.5249935 pf=0.9342 status=variable model=4 CVRwatts=0.8 CVRvars=3 class=1 yearly=Residential conn=wye
New "Load.mdv201_hn_2_542_a851-1a1" phases=1 bus1=x_851_2.1 kV=0.24 kW=3.9707805 pf=0.9234 status=variable model=4 CVRwatts=0.8 CVRvars=3 class=1 yearly=Residential conn=wye
New "Load.mdv201_hn_2_542_a851-1a0" phases=1 bus1=x_851_1.1 kV=0.24 kW=3.9707805 pf=0.9234 status=variable model=4 CVRwatts=0.8 CVRvars=3 class=1 yearly=Residential conn=wye
New "Load.mdv201_hn_2_543_a852-1a3" phases=1 bus1=x_852_4.1 kV=0.24 kW=4.43409075 pf=0.9234 status=variable model=4 CVRwatts=0.8 CVRvars=3 class=1 yearly=Residential conn=wye
New "Load.mdv201_hn_2_543_a852-1a2" phases=1 bus1=x_852_3.1 kV=0.24 kW=4.43409075 pf=0.9234 status=variable model=4 CVRwatts=0.8 CVRvars=3 class=1 yearly=Residential conn=wye
New "Load.mdv201_hn_2_543_a852-1a1" phases=1 bus1=x_852_2.1 kV=0.24 kW=4.43409075 pf=0.9234 status=variable model=4 CVRwatts=0.8 CVRvars=3 class=1 yearly=Residential conn=wye
New "Load.mdv201_hn_2_543_a852-1a0" phases=1 bus1=x_852_1.1 kV=0.24 kW=4.43409075 pf=0.9234 status=variable model=4 CVRwatts=0.8 CVRvars=3 class=1 yearly=Residential conn=wye
New "Load.mdv201_hn_2_878_b1144266-1b2" phases=1 bus1=x_1144266_3.2 kV=0.24 kW=3.283927 pf=0.9342 status=variable model=4 CVRwatts=0.8 CVRvars=3 class=1 yearly=Residential conn=wye
New "Load.mdv201_hn_2_878_b1144266-1b1" phases=1 bus1=x_1144266_2.2 kV=0.24 kW=3.283927 pf=0.9342 status=variable model=4 CVRwatts=0.8 CVRvars=3 class=1 yearly=Residential conn=wye
New "Load.mdv201_hn_2_878_b1144266-1b0" phases=1 bus1=x_1144266_1.2 kV=0.24 kW=3.283927 pf=0.9342 status=variable model=4 CVRwatts=0.8 CVRvars=3 class=1 yearly=Residential conn=wye
New "Load.mdv201_hn_2_879_b825-1b2" phases=1 bus1=x_825_3.2 kV=0.24 kW=4.07475566666667 pf=0.9342 status=variable model=4 CVRwatts=0.8 CVRvars=3 class=1 yearly=Residential conn=wye
New "Load.mdv201_hn_2_879_b825-1b1" phases=1 bus1=x_825_2.2 kV=0.24 kW=4.07475566666667 pf=0.9342 status=variable model=4 CVRwatts=0.8 CVRvars=3 class=1 yearly=Residential conn=wye
New "Load.mdv201_hn_2_879_b825-1b0" phases=1 bus1=x_825_1.2 kV=0.24 kW=4.07475566666667 pf=0.9342 status=variable model=4 CVRwatts=0.8 CVRvars=3 class=1 yearly=Residential conn=wye
New "Load.mdv201_hn_2_880_b8096-1b4" phases=1 bus1=x_8096_5.2 kV=0.24 kW=5.1528596 pf=0.9342 status=variable model=4 CVRwatts=0.8 CVRvars=3 class=1 yearly=Residential conn=wye
New "Load.mdv201_hn_2_880_b8096-1b3" phases=1 bus1=x_8096_4.2 kV=0.24 kW=5.1528596 pf=0.9342 status=variable model=4 CVRwatts=0.8 CVRvars=3 class=1 yearly=Residential conn=wye
New "Load.mdv201_hn_2_880_b8096-1b2" phases=1 bus1=x_8096_3.2 kV=0.24 kW=5.1528596 pf=0.9342 status=variable model=4 CVRwatts=0.8 CVRvars=3 class=1 yearly=Residential conn=wye
New "Load.mdv201_hn_2_880_b8096-1b1" phases=1 bus1=x_8096_2.2 kV=0.24 kW=5.1528596 pf=0.9342 status=variable model=4 CVRwatts=0.8 CVRvars=3 class=1 yearly=Residential conn=wye
New "Load.mdv201_hn_2_880_b8096-1b0" phases=1 bus1=x_8096_1.2 kV=0.24 kW=5.1528596 pf=0.9342 status=variable model=4 CVRwatts=0.8 CVRvars=3 class=1 yearly=Residential conn=wye
New "Load.mdv201_hn_2_486_c1103251-1c0" phases=1 bus1=x_1103251_1.3 kV=0.24 kW=1.303654 pf=0.93 status=variable model=4 CVRwatts=0.8 CVRvars=3 class=1 yearly=Residential conn=wye
New "Load.mdv201_hn_2_487_c8099-1c1" phases=1 bus1=x_8099_2.3 kV=0.24 kW=5.6934655 pf=0.93 status=variable model=4 CVRwatts=0.8 CVRvars=3 class=1 yearly=Residential conn=wye
New "Load.mdv201_hn_2_487_c8099-1c0" phases=1 bus1=x_8099_1.3 kV=0.24 kW=5.6934655 pf=0.93 status=variable model=4 CVRwatts=0.8 CVRvars=3 class=1 yearly=Residential conn=wye
New "Load.mdv201_hn_2_488_c8103-1c0" phases=1 bus1=x_8103_1.3 kV=0.24 kW=4.121909 pf=0.93 status=variable model=4 CVRwatts=0.8 CVRvars=3 class=1 yearly=Residential conn=wye
New "Load.mdv201_hn_2_489_c8104-1c0" phases=1 bus1=x_8104_1.3 kV=0.24 kW=10.290006 pf=0.93 status=variable model=4 CVRwatts=0.8 CVRvars=3 class=1 yearly=Residential conn=wye
New "Load.mdv201_hn_2_490_c8110-1c2" phases=1 bus1=x_8110_3.3 kV=0.24 kW=3.05873466666667 pf=0.93 status=variable model=4 CVRwatts=0.8 CVRvars=3 class=1 yearly=Residential conn=wye
New "Load.mdv201_hn_2_490_c8110-1c1" phases=1 bus1=x_8110_2.3 kV=0.24 kW=3.05873466666667 pf=0.93 status=variable model=4 CVRwatts=0.8 CVRvars=3 class=1 yearly=Residential conn=wye
New "Load.mdv201_hn_2_490_c8110-1c0" phases=1 bus1=x_8110_1.3 kV=0.24 kW=3.05873466666667 pf=0.93 status=variable model=4 CVRwatts=0.8 CVRvars=3 class=1 yearly=Residential conn=wye
New "Load.mdv201_hn_2_491_c8114-1c1" phases=1 bus1=x_8114_2.3 kV=0.24 kW=4.265353 pf=0.93 status=variable model=4 CVRwatts=0.8 CVRvars=3 class=1 yearly=Residential conn=wye
New "Load.mdv201_hn_2_491_c8114-1c0" phases=1 bus1=x_8114_1.3 kV=0.24 kW=4.265353 pf=0.93 status=variable model=4 CVRwatts=0.8 CVRvars=3 class=1 yearly=Residential conn=wye
New "Load.mdv201_hn_2_492_c8123-1c1" phases=1 bus1=x_8123_2.3 kV=0.24 kW=12.080948 pf=0.93 status=variable model=4 CVRwatts=0.8 CVRvars=3 class=1 yearly=Residential conn=wye
New "Load.mdv201_hn_2_492_c8123-1c0" phases=1 bus1=x_8123_1.3 kV=0.24 kW=12.080948 pf=0.93 status=variable model=4 CVRwatts=0.8 CVRvars=3 class=1 yearly=Residential conn=wye
New "Load.mdv201_hn_2_140_abc8124-1c0" phases=1 bus1=x_8124_1.3 kV=0.24 kW=4.193631 pf=0.93 status=variable model=4 CVRwatts=0.8 CVRvars=3 class=1 yearly=Residential conn=wye
New "Load.mdv201_hn_21038_ab28191-1a0" phases=1 bus1=x_28191_1.1 kV=0.24 kW=0.436671 pf=0.9234 status=variable model=4 CVRwatts=0.8 CVRvars=3 class=2 yearly=Commercial_SM conn=wye
New "Load.mdv201_hn_21038_ab28191-1b0" phases=1 bus1=x_28191_1.2 kV=0.24 kW=2.166898 pf=0.9342 status=variable model=4 CVRwatts=0.8 CVRvars=3 class=2 yearly=Commercial_SM conn=wye
New "Load.mdv201_hn_21090_abc1011952-1a0" phases=1 bus1=x_1011952_1.1 kV=0.24 kW=4.567286 pf=0.9234 status=variable model=4 CVRwatts=0.8 CVRvars=3 class=2 yearly=Commercial_SM conn=wye
New "Load.mdv201_hn_21090_abc1011952-1b0" phases=1 bus1=x_1011952_1.2 kV=0.24 kW=4.494155 pf=0.9342 status=variable model=4 CVRwatts=0.8 CVRvars=3 class=2 yearly=Commercial_SM conn=wye
New "Load.mdv201_hn_21090_abc1011952-1c0" phases=1 bus1=x_1011952_1.3 kV=0.24 kW=4.611306 pf=0.93 status=variable model=4 CVRwatts=0.8 CVRvars=3 class=2 yearly=Commercial_SM conn=wye
New "Load.mdv201_hn_2_760_abc28208-1a0" phases=1 bus1=x_28208_1.1 kV=0.24 kW=2.563614 pf=0.9234 status=variable model=4 CVRwatts=0.8 CVRvars=3 class=2 yearly=Commercial_SM conn=wye
New "Load.mdv201_hn_2_760_abc28208-1b0" phases=1 bus1=x_28208_1.2 kV=0.24 kW=2.522566 pf=0.9342 status=variable model=4 CVRwatts=0.8 CVRvars=3 class=2 yearly=Commercial_SM conn=wye
New "Load.mdv201_hn_2_760_abc28208-1c0" phases=1 bus1=x_28208_1.3 kV=0.24 kW=2.588322 pf=0.93 status=variable model=4 CVRwatts=0.8 CVRvars=3 class=2 yearly=Commercial_SM conn=wye
New "Load.mdv201_hn_2_602_a8151-1a0" phases=1 bus1=x_8151_1.1 kV=0.24 kW=6.084143 pf=0.9234 status=variable model=4 CVRwatts=0.8 CVRvars=3 class=1 yearly=Residential conn=wye
New "Load.mdv201_hn_2_603_a8152-1a2" phases=1 bus1=x_8152_3.1 kV=0.24 kW=5.322232 pf=0.9234 status=variable model=4 CVRwatts=0.8 CVRvars=3 class=1 yearly=Residential conn=wye
New "Load.mdv201_hn_2_603_a8152-1a1" phases=1 bus1=x_8152_2.1 kV=0.24 kW=5.322232 pf=0.9234 status=variable model=4 CVRwatts=0.8 CVRvars=3 class=1 yearly=Residential conn=wye
New "Load.mdv201_hn_2_603_a8152-1a0" phases=1 bus1=x_8152_1.1 kV=0.24 kW=5.322232 pf=0.9234 status=variable model=4 CVRwatts=0.8 CVRvars=3 class=1 yearly=Residential conn=wye
New "Load.mdv201_hn_2_604_a28213-1a1" phases=1 bus1=x_28213_2.1 kV=0.24 kW=4.0658455 pf=0.9234 status=variable model=4 CVRwatts=0.8 CVRvars=3 class=1 yearly=Residential conn=wye
New "Load.mdv201_hn_2_604_a28213-1a0" phases=1 bus1=x_28213_1.1 kV=0.24 kW=4.0658455 pf=0.9234 status=variable model=4 CVRwatts=0.8 CVRvars=3 class=1 yearly=Residential conn=wye
New "Load.mdv201_hn_2_605_a21655-1a1" phases=1 bus1=x_21655_2.1 kV=0.24 kW=2.9355155 pf=0.9234 status=variable model=4 CVRwatts=0.8 CVRvars=3 class=1 yearly=Residential conn=wye