New "Transformer.mdv201_hn_2_436_abc63639-1b" phases=1 buses=[63639.2, x_63639.2, ] conns=[wye, wye, ] kVs=[7.199558, 0.24, ] kVAs=[25, 25, ] taps=[1, 1, ] wdg=1 %R=0.75 wdg=2 %R=0.75 %imag=0.5 %loadloss=1.5 %noloadloss=0.25 Xhl=2
New "Transformer.mdv201_hn_2_435_abc63643-1b" phases=1 buses=[63643.2, x_63643.2, ] conns=[wye, wye, ] kVs=[7.199558, 0.24, ] kVAs=[25, 25, ] taps=[1, 1, ] wdg=1 %R=0.75 wdg=2 %R=0.75 %imag=0.5 %loadloss=1.5 %noloadloss=0.25 Xhl=2
New "Transformer.mdv201_hn_2_434_abc63645-1b" phases=1 buses=[63645.2, x_63645.2, ] conns=[wye, wye, ] kVs=[7.199558, 0.24, ] kVAs=[25, 25, ] taps=[1, 1, ] wdg=1 %R=0.75 wdg=2 %R=0.75 %imag=0.5 %loadloss=1.5 %noloadloss=0.25 Xhl=2
New "Transformer.mdv201_hn_2_408_abc63655-1b" phases=1 buses=[63655.2, x_63655.2, ] conns=[wye, wye, ] kVs=[7.199558, 0.24, ] kVAs=[25, 25, ] taps=[1, 1, ] wdg=1 %R=0.75 wdg=2 %R=0.75 %imag=0.5 %loadloss=1.5 %noloadloss=0.25 Xhl=2
New "Transformer.mdv201_hn_2_395_abc63657-1b" phases=1 buses=[63657.2, x_63657.2, ] conns=[wye, wye, ] kVs=[7.199558, 0.24, ] kVAs=[37.5, 37.5, ] taps=[1, 1, ] wdg=1 %R=0.7 wdg=2 %R=0.7 %imag=0.5 %loadloss=1.4 %noloadloss=0.25 Xhl=2
New "Transformer.mdv201_hn_2_283_abc14857-1b" phases=1 buses=[14857.2, x_14857.2, ] conns=[wye, wye, ] kVs=[7.199558, 0.24, ] kVAs=[25, 25, ] taps=[1, 1, ] wdg=1 %R=0.75 wdg=2 %R=0.75 %imag=0.5 %loadloss=1.5 %noloadloss=0.25 Xhl=2
New "Transformer.mdv201_hn_2_964_a14870-1a" phases=1 buses=[14870.1, x_14870.1, ] conns=[wye, wye, ] kVs=[7.199558, 0.24, ] kVAs=[25, 25, ] taps=[1, 1, ] wdg=1 %R=0.75 wdg=2 %R=0.75 %imag=0.5 %loadloss=1.5 %noloadloss=0.25 Xhl=2
New "Transformer.mdv201_hn_2_966_a63718-1a" phases=1 buses=[63718.1, x_63718.1, ] conns=[wye, wye, ] kVs=[7.199558, 0.24, ] kVAs=[25, 25, ] taps=[1, 1, ] wdg=1 %R=0.75 wdg=2 %R=0.75 %imag=0.5 %loadloss=1.5 %noloadloss=0.25 Xhl=2
New "Transformer.mdv201_hn_2_967_a63715-1a" phases=1 buses=[63715.1, x_63715.1, ] conns=[wye, wye, ] kVs=[7.199558, 0.24, ] kVAs=[25, 25, ] taps=[1, 1, ] wdg=1 %R=0.75 wdg=2 %R=0.75 %imag=0.5 %loadloss=1.5 %noloadloss=0.25 Xhl=2
New "Transformer.mdv201_hn_2_968_a63713-1a" phases=1 buses=[63713.1, x_63713.1, ] conns=[wye, wye, ] kVs=[7.199558, 0.24, ] kVAs=[37.5, 37.5, ] taps=[1, 1, ] wdg=1 %R=0.7 wdg=2 %R=0.7 %imag=0.5 %loadloss=1.4 %noloadloss=0.25 Xhl=2
New "Transformer.mdv201_hn_2_969_a63709-1a" phases=1 buses=[63709.1, x_63709.1, ] conns=[wye, wye, ] kVs=[7.199558, 0.24, ] kVAs=[25, 25, ] taps=[1, 1, ] wdg=1 %R=0.75 wdg=2 %R=0.75 %imag=0.5 %loadloss=1.5 %noloadloss=0.25 Xhl=2
New "Transformer.mdv201_hn_2_970_a63710-1a" phases=1 buses=[63710.1, x_63710.1, ] conns=[wye, wye, ] kVs=[7.199558, 0.24, ] kVAs=[37.5, 37.5, ] taps=[1, 1, ] wdg=1 %R=0.7 wdg=2 %R=0.7 %imag=0.5 %loadloss=1.4 %noloadloss=0.25 Xhl=2
New "Transformer.mdv201_hn_2_094_abc51012-1b" phases=1 buses=[51012.2, x_51012.2, ] conns=[wye, wye, ] kVs=[7.199558, 0.24, ] kVAs=[25, 25, ] taps=[1, 1, ] wdg=1 %R=0.75 wdg=2 %R=0.75 %imag=0.5 %loadloss=1.5 %noloadloss=0.25 Xhl=2
New "Transformer.mdv201_hn_2_729_b28246-1b" phases=1 buses=[28246.2, x_28246.2, ] conns=[wye, wye, ] kVs=[7.199558, 0.24, ] kVAs=[15, 15, ] taps=[1, 1, ] wdg=1 %R=0.825 wdg=2 %R=0.825 %imag=0.5 %loadloss=1.65 %noloadloss=0.25 Xhl=2
New "Transformer.mdv201_hn_2_731_b14852-1b" phases=1 buses=[14852.2, x_14852.2, ] conns=[wye, wye, ] kVs=[7.199558, 0.24, ] kVAs=[25, 25, ] taps=[1, 1, ] wdg=1 %R=0.75 wdg=2 %R=0.75 %imag=0.5 %loadloss=1.5 %noloadloss=0.25 Xhl=2
New "Transformer.mdv201_hn_2_394_abc63658-1b" phases=1 buses=[63658.2, x_63658.2, ] conns=[wye, wye, ] kVs=[7.199558, 0.24, ] kVAs=[10, 10, ] taps=[1, 1, ] wdg=1 %R=0.85 wdg=2 %R=0.85 %imag=0.5 %loadloss=1.7 %noloadloss=0.25 Xhl=2
New "Transformer.mdv201_hn_2_392_b63661-1b" phases=1 buses=[63661.2, x_63661.2, ] conns=[wye, wye, ] kVs=[7.199558, 0.24, ] kVAs=[37.5, 37.5, ] taps=[1, 1, ] wdg=1 %R=0.7 wdg=2 %R=0.7 %imag=0.5 %loadloss=1.4 %noloadloss=0.25 Xhl=2
New "Transformer.mdv201_hn_2_391_b63644-1b" phases=1 buses=[63644.2, x_63644.2, ] conns=[wye, wye, ] kVs=[7.199558, 0.24, ] kVAs=[25, 25, ] taps=[1, 1, ] wdg=1 %R=0.75 wdg=2 %R=0.75 %imag=0.5 %loadloss=1.5 %noloadloss=0.25 Xhl=2
New "Transformer.mdv201_hn_2_390_b63640-1b" phases=1 buses=[63640.2, x_63640.2, ] conns=[wye, wye, ] kVs=[7.199558, 0.24, ] kVAs=[37.5, 37.5, ] taps=[1, 1, ] wdg=1 %R=0.7 wdg=2 %R=0.7 %imag=0.5 %loadloss=1.4 %noloadloss=0.25 Xhl=2
New "Transformer.mdv201_hn_2_397_b63634-1b" phases=1 buses=[63634.2, x_63634.2, ] conns=[wye, wye, ] kVs=[7.199558, 0.24, ] kVAs=[50, 50, ] taps=[1, 1, ] wdg=1 %R=0.65 wdg=2 %R=0.65 %imag=0.5 %loadloss=1.3 %noloadloss=0.25 Xhl=2
New "Transformer.mdv201_hn_2_398_b63633-1b" phases=1 buses=[63633.2, x_63633.2, ] conns=[wye, wye, ] kVs=[7.199558, 0.24, ] kVAs=[25, 25, ] taps=[1, 1, ] wdg=1 %R=0.75 wdg=2 %R=0.75 %imag=0.5 %loadloss=1.5 %noloadloss=0.25 Xhl=2
New "Transformer.mdv201_hn_2_399_b63641-1b" phases=1 buses=[63641.2, x_63641.2, ] conns=[wye, wye, ] kVs=[7.199558, 0.24, ] kVAs=[25, 25, ] taps=[1, 1, ] wdg=1 %R=0.75 wdg=2 %R=0.75 %imag=0.5 %loadloss=1.5 %noloadloss=0.25 Xhl=2
New "Transformer.mdv201_hn_2_400_b63637-1b" phases=1 buses=[63637.2, x_63637.2, ] conns=[wye, wye, ] kVs=[7.199558, 0.24, ] kVAs=[25, 25, ] taps=[1, 1, ] wdg=1 %R=0.75 wdg=2 %R=0.75 %imag=0.5 %loadloss=1.5 %noloadloss=0.25 Xhl=2
New "Transformer.mdv201_hn_2_401_b63632-1b" phases=1 buses=[63632.2, x_63632.2, ] conns=[wye, wye, ] kVs=[7.199558, 0.24, ] kVAs=[25, 25, ] taps=[1, 1, ] wdg=1 %R=0.75 wdg=2 %R=0.75 %imag=0.5 %loadloss=1.5 %noloadloss=0.25 Xhl=2
New "Transformer.mdv201_hn_2_402_b793-1b" phases=1 buses=[793.2, x_793.2, ] conns=[wye, wye, ] kVs=[7.199558, 0.24, ] kVAs=[25, 25, ] taps=[1, 1, ] wdg=1 %R=0.75 wdg=2 %R=0.75 %imag=0.5 %loadloss=1.5 %noloadloss=0.25 Xhl=2
New "Transformer.mdv201_hn_2_403_b792-1b" phases=1 buses=[792.2, x_792.2, ] conns=[wye, wye, ] kVs=[7.199558, 0.24, ] kVAs=[25, 25, ] taps=[1, 1, ] wdg=1 %R=0.75 wdg=2 %R=0.75 %imag=0.5 %loadloss=1.5 %noloadloss=0.25 Xhl=2
New "Transformer.mdv201_hn_2_404_b799-1b" phases=1 buses=[799.2, x_799.2, ] conns=[wye, wye, ] kVs=[7.199558, 0.24, ] kVAs=[25, 25, ] taps=[1, 1, ] wdg=1 %R=0.75 wdg=2 %R=0.75 %imag=0.5 %loadloss=1.5 %noloadloss=0.25 Xhl=2
New "Transformer.mdv201_hn_2_389_b63636-1b" phases=1 buses=[63636.2, x_63636.2, ] conns=[wye, wye, ] kVs=[7.199558, 0.24, ] kVAs=[37.5, 37.5, ] taps=[1, 1, ] wdg=1 %R=0.7 wdg=2 %R=0.7 %imag=0.5 %loadloss=1.4 %noloadloss=0.25 Xhl=2
New "Transformer.mdv201_hn_2_388_b802-1b" phases=1 buses=[802.2, x_802.2, ] conns=[wye, wye, ] kVs=[7.199558, 0.24, ] kVAs=[25, 25, ] taps=[1, 1, ] wdg=1 %R=0.75 wdg=2 %R=0.75 %imag=0.5 %loadloss=1.5 %noloadloss=0.25 Xhl=2
New "Transformer.mdv201_hn_2_405_b803-1b" phases=1 buses=[803.2, x_803.2, ] conns=[wye, wye, ] kVs=[7.199558, 0.24, ] kVAs=[25, 25, ] taps=[1, 1, ] wdg=1 %R=0.75 wdg=2 %R=0.75 %imag=0.5 %loadloss=1.5 %noloadloss=0.25 Xhl=2
New "Transformer.mdv201_hn_2_406_b806-1b" phases=1 buses=[806.2, x_806.2, ] conns=[wye, wye, ] kVs=[7.199558, 0.24, ] kVAs=[37.5, 37.5, ] taps=[1, 1, ] wdg=1 %R=0.7 wdg=2 %R=0.7 %imag=0.5 %loadloss=1.4 %noloadloss=0.25 Xhl=2
New "Transformer.mdv201_hn_2_407_b809-1b" phases=1 buses=[809.2, x_809.2, ] conns=[wye, wye, ] kVs=[7.199558, 0.24, ] kVAs=[37.5, 37.5, ] taps=[1, 1, ] wdg=1 %R=0.7 wdg=2 %R=0.7 %imag=0.5 %loadloss=1.4 %noloadloss=0.25 Xhl=2
New "Transformer.mdv201_hn_2_425_b813-1b" phases=1 buses=[813.2, x_813.2, ] conns=[wye, wye, ] kVs=[7.199558, 0.24, ] kVAs=[37.5, 37.5, ] taps=[1, 1, ] wdg=1 %R=0.7 wdg=2 %R=0.7 %imag=0.5 %loadloss=1.4 %noloadloss=0.25 Xhl=2
New "Transformer.mdv201_hn_2_426_b816-1b" phases=1 buses=[816.2, x_816.2, ] conns=[wye, wye, ] kVs=[7.199558, 0.24, ] kVAs=[25, 25, ] taps=[1, 1, ] wdg=1 %R=0.75 wdg=2 %R=0.75 %imag=0.5 %loadloss=1.5 %noloadloss=0.25 Xhl=2
New "Transformer.mdv201_hn_2_428_b812-1b" phases=1 buses=[812.2, x_812.2, ] conns=[wye, wye, ] kVs=[7.199558, 0.24, ] kVAs=[37.5, 37.5, ] taps=[1, 1, ] wdg=1 %R=0.7 wdg=2 %R=0.7 %imag=0.5 %loadloss=1.4 %noloadloss=0.25 Xhl=2
New "Transformer.mdv201_hn_2_429_b807-1b" phases=1 buses=[807.2, x_807.2, ] conns=[wye, wye, ] kVs=[7.199558, 0.24, ] kVAs=[37.5, 37.5, ] taps=[1, 1, ] wdg=1 %R=0.7 wdg=2 %R=0.7 %imag=0.5 %loadloss=1.4 %noloadloss=0.25 Xhl=2
New "Transformer.mdv201_hn_2_430_b797-1b" phases=1 buses=[797.2, x_797.2, ] conns=[wye, wye, ] kVs=[7.199558, 0.24, ] kVAs=[25, 25, ] taps=[1, 1, ] wdg=1 %R=0.75 wdg=2 %R=0.75 %imag=0.5 %loadloss=1.5 %noloadloss=0.25 Xhl=2
New "Transformer.mdv201_hn_2_431_b789-1b" phases=1 buses=[789.2, x_789.2, ] conns=[wye, wye, ] kVs=[7.199558, 0.24, ] kVAs=[37.5, 37.5, ] taps=[1, 1, ] wdg=1 %R=0.7 wdg=2 %R=0.7 %imag=0.5 %loadloss=1.4 %noloadloss=0.25 Xhl=2
New "Transformer.mdv201_hn_2_432_b786-1b" phases=1 buses=[786.2, x_786.2, ] conns=[wye, wye, ] kVs=[7.199558, 0.24, ] kVAs=[25, 25, ] taps=[1, 1, ] wdg=1 %R=0.75 wdg=2 %R=0.75 %imag=0.5 %loadloss=1.5 %noloadloss=0.25 Xhl=2
New "Transformer.mdv201_hn_2_433_b787-1b" phases=1 buses=[787.2, x_787.2, ] conns=[wye, wye, ] kVs=[7.199558, 0.24, ] kVAs=[50, 50, ] taps=[1, 1, ] wdg=1 %R=0.65 wdg=2 %R=0.65 %imag=0.5 %loadloss=1.3 %noloadloss=0.25 Xhl=2
New "Transformer.mdv201_hn_2_427_b826-1b" phases=1 buses=[826.2, x_826.2, ] conns=[wye, wye, ] kVs=[7.199558, 0.24, ] kVAs=[25, 25, ] taps=[1, 1, ] wdg=1 %R=0.75 wdg=2 %R=0.75 %imag=0.5 %loadloss=1.5 %noloadloss=0.25 Xhl=2
New "Transformer.mdv201_hn_2_387_b804-1b" phases=1 buses=[804.2, x_804.2, ] conns=[wye, wye, ] kVs=[7.199558, 0.24, ] kVAs=[37.5, 37.5, ] taps=[1, 1, ] wdg=1 %R=0.7 wdg=2 %R=0.7 %imag=0.5 %loadloss=1.4 %noloadloss=0.25 Xhl=2
New "Transformer.mdv201_hn_2_386_b811-1b" phases=1 buses=[811.2, x_811.2, ] conns=[wye, wye, ] kVs=[7.199558, 0.24, ] kVAs=[25, 25, ] taps=[1, 1, ] wdg=1 %R=0.75 wdg=2 %R=0.75 %imag=0.5 %loadloss=1.5 %noloadloss=0.25 Xhl=2
New "Transformer.mdv201_hn_2_143_abc63642-1a" phases=1 buses=[63642.1, x_63642.1, ] conns=[wye, wye, ] kVs=[7.199558, 0.24, ] kVAs=[15, 15, ] taps=[1, 1, ] wdg=1 %R=0.825 wdg=2 %R=0.825 %imag=0.5 %loadloss=1.65 %noloadloss=0.25 Xhl=2
New "Transformer.mdv201_hn_2_141_abc800-1a" phases=1 buses=[800.1, x_800.1, ] conns=[wye, wye, ] kVs=[7.199558, 0.24, ] kVAs=[25, 25, ] taps=[1, 1, ] wdg=1 %R=0.75 wdg=2 %R=0.75 %imag=0.5 %loadloss=1.5 %noloadloss=0.25 Xhl=2
New "Transformer.mdv201_hn_2_250_abc801-1a" phases=1 buses=[801.1, x_801.1, ] conns=[wye, wye, ] kVs=[7.199558, 0.24, ] kVAs=[25, 25, ] taps=[1, 1, ] wdg=1 %R=0.75 wdg=2 %R=0.75 %imag=0.5 %loadloss=1.5 %noloadloss=0.25 Xhl=2
New "Transformer.mdv201_hn_2_136_abc1010734-1b" phases=1 buses=[1010734.2, x_1010734.2, ] conns=[wye, wye, ] kVs=[7.199558, 0.24, ] kVAs=[25, 25, ] taps=[1, 1, ] wdg=1 %R=0.75 wdg=2 %R=0.75 %imag=0.5 %loadloss=1.5 %noloadloss=0.25 Xhl=2
New "Transformer.mdv201_hn_2_541_abc821-1b" phases=1 buses=[821.2, x_821.2, ] conns=[wye, wye, ] kVs=[7.199558, 0.24, ] kVAs=[15, 15, ] taps=[1, 1, ] wdg=1 %R=0.825 wdg=2 %R=0.825 %imag=0.5 %loadloss=1.65 %noloadloss=0.25 Xhl=2
New "Transformer.mdv201_hn_2_226_abc822-1b" phases=1 buses=[822.2, x_822.2, ] conns=[wye, wye, ] kVs=[7.199558, 0.24, ] kVAs=[25, 25, ] taps=[1, 1, ] wdg=1 %R=0.75 wdg=2 %R=0.75 %imag=0.5 %loadloss=1.5 %noloadloss=0.25 Xhl=2
New "Transformer.mdv201_hn_2_542_a851-1a" phases=1 buses=[851.1, x_851.1, ] conns=[wye, wye, ] kVs=[7.199558, 0.24, ] kVAs=[37.5, 37.5, ] taps=[1, 1, ] wdg=1 %R=0.7 wdg=2 %R=0.7 %imag=0.5 %loadloss=1.4 %noloadloss=0.25 Xhl=2
New "Transformer.mdv201_hn_2_543_a852-1a" phases=1 buses=[852.1, x_852.1, ] conns=[wye, wye, ] kVs=[7.199558, 0.24, ] kVAs=[50, 50, ] taps=[1, 1, ] wdg=1 %R=0.65 wdg=2 %R=0.65 %imag=0.5 %loadloss=1.3 %noloadloss=0.25 Xhl=2
New "Transformer.mdv201_hn_2_878_b1144266-1b" phases=1 buses=[1144266.2, x_1144266.2, ] conns=[wye, wye, ] kVs=[7.199558, 0.24, ] kVAs=[25, 25, ] taps=[1, 1, ] wdg=1 %R=0.75 wdg=2 %R=0.75 %imag=0.5 %loadloss=1.5 %noloadloss=0.25 Xhl=2
New "Transformer.mdv201_hn_2_879_b825-1b" phases=1 buses=[825.2, x_825.2, ] conns=[wye, wye, ] kVs=[7.199558, 0.24, ] kVAs=[25, 25, ] taps=[1, 1, ] wdg=1 %R=0.75 wdg=2 %R=0.75 %imag=0.5 %loadloss=1.5 %noloadloss=0.25 Xhl=2
New "Transformer.mdv201_hn_2_880_b8096-1b" phases=1 buses=[8096.2, x_8096.2, ] conns=[wye, wye, ] kVs=[7.199558, 0.24, ] kVAs=[37.5, 37.5, ] taps=[1, 1, ] wdg=1 %R=0.7 wdg=2 %R=0.7 %imag=0.5 %loadloss=1.4 %noloadloss=0.25 Xhl=2
New "Transformer.mdv201_hn_2_486_c1103251-1c" phases=1 buses=[1103251.3, x_1103251.3, ] conns=[wye, wye, ] kVs=[7.199558, 0.24, ] kVAs=[15, 15, ] taps=[1, 1, ] wdg=1 %R=0.825 wdg=2 %R=0.825 %imag=0.5 %loadloss=1.65 %noloadloss=0.25 Xhl=2
New "Transformer.mdv201_hn_2_487_c8099-1c" phases=1 buses=[8099.3, x_8099.3, ] conns=[wye, wye, ] kVs=[7.199558, 0.24, ] kVAs=[25, 25, ] taps=[1, 1, ] wdg=1 %R=0.75 wdg=2 %R=0.75 %imag=0.5 %loadloss=1.5 %noloadloss=0.25 Xhl=2
New "Transformer.mdv201_hn_2_488_c8103-1c" phases=1 buses=[8103.3, x_8103.3, ] conns=[wye, wye, ] kVs=[7.199558, 0.24, ] kVAs=[15, 15, ] taps=[1, 1, ] wdg=1 %R=0.825 wdg=2 %R=0.825 %imag=0.5 %loadloss=1.65 %noloadloss=0.25 Xhl=2
New "Transformer.mdv201_hn_2_489_c8104-1c" phases=1 buses=[8104.3, x_8104.3, ] conns=[wye, wye, ] kVs=[7.199558, 0.24, ] kVAs=[15, 15, ] taps=[1, 1, ] wdg=1 %R=0.825 wdg=2 %R=0.825 %imag=0.5 %loadloss=1.65 %noloadloss=0.25 Xhl=2
New "Transformer.mdv201_hn_2_490_c8110-1c" phases=1 buses=[8110.3, x_8110.3, ] conns=[wye, wye, ] kVs=[7.199558, 0.24, ] kVAs=[25, 25, ] taps=[1, 1, ] wdg=1 %R=0.75 wdg=2 %R=0.75 %imag=0.5 %loadloss=1.5 %noloadloss=0.25 Xhl=2
New "Transformer.mdv201_hn_2_491_c8114-1c" phases=1 buses=[8114.3, x_8114.3, ] conns=[wye, wye, ] kVs=[7.199558, 0.24, ] kVAs=[25, 25, ] taps=[1, 1, ] wdg=1 %R=0.75 wdg=2 %R=0.75 %imag=0.5 %loadloss=1.5 %noloadloss=0.25 Xhl=2
New "Transformer.mdv201_hn_2_492_c8123-1c" phases=1 buses=[8123.3, x_8123.3, ] conns=[wye, wye, ] kVs=[7.199558, 0.24, ] kVAs=[25, 25, ] taps=[1, 1, ] wdg=1 %R=0.75 wdg=2 %R=0.75 %imag=0.5 %loadloss=1.5 %noloadloss=0.25 Xhl=2
New "Transformer.mdv201_hn_2_140_abc8124-1c" phases=1 buses=[8124.3, x_8124.3, ] conns=[wye, wye, ] kVs=[7.199558, 0.24, ] kVAs=[15, 15, ] taps=[1, 1, ] wdg=1 %R=0.825 wdg=2 %R=0.825 %imag=0.5 %loadloss=1.65 %noloadloss=0.25 Xhl=2
New "Transformer.mdv201_hn_21038_ab28191-1b" phases=1 buses=[28191.2, x_28191.2, ] conns=[wye, wye, ] kVs=[7.199558, 0.24, ] kVAs=[15, 15, ] taps=[1, 1, ] wdg=1 %R=0.825 wdg=2 %R=0.825 %imag=0.5 %loadloss=1.65 %noloadloss=0.25 Xhl=2
New "Transformer.mdv201_hn_21038_ab28191-1a" phases=1 buses=[28191.1, x_28191.1, ] conns=[wye, wye, ] kVs=[7.199558, 0.24, ] kVAs=[10, 10, ] taps=[1, 1, ] wdg=1 %R=0.85 wdg=2 %R=0.85 %imag=0.5 %loadloss=1.7 %noloadloss=0.25 Xhl=2
New "Transformer.mdv201_hn_21090_abc1011952-1c" phases=1 buses=[1011952.3, x_1011952.3, ] conns=[wye, wye, ] kVs=[7.199558, 0.24, ] kVAs=[37.5, 37.5, ] taps=[1, 1, ] wdg=1 %R=0.7 wdg=2 %R=0.7 %imag=0.5 %loadloss=1.4 %noloadloss=0.25 Xhl=2
New "Transformer.mdv201_hn_21090_abc1011952-1b" phases=1 buses=[1011952.2, x_1011952.2, ] conns=[wye, wye, ] kVs=[7.199558, 0.24, ] kVAs=[37.5, 37.5, ] taps=[1, 1, ] wdg=1 %R=0.7 wdg=2 %R=0.7 %imag=0.5 %loadloss=1.4 %noloadloss=0.25 Xhl=2
New "Transformer.mdv201_hn_21090_abc1011952-1a" phases=1 buses=[1011952.1, x_1011952.1, ] conns=[wye, wye, ] kVs=[7.199558, 0.24, ] kVAs=[37.5, 37.5, ] taps=[1, 1, ] wdg=1 %R=0.7 wdg=2 %R=0.7 %imag=0.5 %loadloss=1.4 %noloadloss=0.25 Xhl=2
New "Transformer.mdv201_hn_2_760_abc28208-1c" phases=1 buses=[28208.3, x_28208.3, ] conns=[wye, wye, ] kVs=[7.199558, 0.24, ] kVAs=[15, 15, ] taps=[1, 1, ] wdg=1 %R=0.825 wdg=2 %R=0.825 %imag=0.5 %loadloss=1.65 %noloadloss=0.25 Xhl=2
New "Transformer.mdv201_hn_2_760_abc28208-1b" phases=1 buses=[28208.2, x_28208.2, ] conns=[wye, wye, ] kVs=[7.199558, 0.24, ] kVAs=[15, 15, ] taps=[1, 1, ] wdg=1 %R=0.825 wdg=2 %R=0.825 %imag=0.5 %loadloss=1.65 %noloadloss=0.25 Xhl=2
New "Transformer.mdv201_hn_2_760_abc28208-1a" phases=1 buses=[28208.1, x_28208.1, ] conns=[wye, wye, ] kVs=[7.199558, 0.24, ] kVAs=[15, 15, ] taps=[1, 1, ] wdg=1 %R=0.825 wdg=2 %R=0.825 %imag=0.5 %loadloss=1.65 %noloadloss=0.25 Xhl=2
New "Transformer.mdv201_hn_2_602_a8151-1a" phases=1 buses=[8151.1, x_8151.1, ] conns=[wye, wye, ] kVs=[7.199558, 0.24, ] kVAs=[25, 25, ] taps=[1, 1, ] wdg=1 %R=0.75 wdg=2 %R=0.75 %imag=0.5 %loadloss=1.5 %noloadloss=0.25 Xhl=2
New "Transformer.mdv201_hn_2_603_a8152-1a" phases=1 buses=[8152.1, x_8152.1, ] conns=[wye, wye, ] kVs=[7.199558, 0.24, ] kVAs=[37.5, 37.5, ] taps=[1, 1, ] wdg=1 %R=0.7 wdg=2 %R=0.7 %imag=0.5 %loadloss=1.4 %noloadloss=0.25 Xhl=2
New "Transformer.mdv201_hn_2_604_a28213-1a" phases=1 buses=[28213.1, x_28213.1, ] conns=[wye, wye, ] kVs=[7.199558, 0.24, ] kVAs=[25, 25, ] taps=[1, 1, ] wdg=1 %R=0.75 wdg=2 %R=0.75 %imag=0.5 %loadloss=1.5 %noloadloss=0.25 Xhl=2
New "Transformer.mdv201_hn_2_605_a21655-1a" phases=1 buses=[21655.1, x_21655.1, ] conns=[wye, wye, ] kVs=[7.199558, 0.24, ] kVAs=[25, 25, ] taps=[1, 1, ] wdg=1 %R=0.75 wdg=2 %R=0.75 %imag=0.5 %loadloss=1.5 %noloadloss=0.25 Xhl=2
New "Transformer.mdv201_c_1_399_a21654-1a" phases=1 buses=[21654.1, x_21654.1, ] conns=[wye, wye, ] kVs=[7.199558, 0.24, ] kVAs=[37.5, 37.5, ] taps=[1, 1, ] wdg=1 %R=0.7 wdg=2 %R=0.7 %imag=0.5 %loadloss=1.4 %noloadloss=0.25 Xhl=2
New "Transformer.mdv201_c_1_400_a21653-1a" phases=1 buses=[21653.1, x_21653.1, ] conns=[wye, wye, ] kVs=[7.199558, 0.24, ] kVAs=[25, 25, ] taps=[1, 1, ] wdg=1 %R=0.75 wdg=2 %R=0.75 %imag=0.5 %loadloss=1.5 %noloadloss=0.25 Xhl=2
New "Transformer.mdv201_c_1_401_a21651-1a" phases=1 buses=[21651.1, x_21651.1, ] conns=[wye, wye, ] kVs=[7.199558, 0.24, ] kVAs=[25, 25, ] taps=[1, 1, ] wdg=1 %R=0.75 wdg=2 %R=0.75 %imag=0.5 %loadloss=1.5 %noloadloss=0.25 Xhl=2
New "Transformer.mdv201_c_1_402_a21650-1a" phases=1 buses=[21650.1, x_21650.1, ] conns=[wye, wye, ] kVs=[7.199558, 0.24, ] kVAs=[25, 25, ] taps=[1, 1, ] wdg=1 %R=0.75 wdg=2 %R=0.75 %imag=0.5 %loadloss=1.5 %noloadloss=0.25 Xhl=2
New "Transformer.mdv201_c_1_404_a8139-1a" phases=1 buses=[8139.1, x_8139.1, ] conns=[wye, wye, ] kVs=[7.199558, 0.24, ] kVAs=[25, 25, ] taps=[1, 1, ] wdg=1 %R=0.75 wdg=2 %R=0.75 %imag=0.5 %loadloss=1.5 %noloadloss=0.25 Xhl=2
New "Transformer.mdv201_c_1_407_a8136-1a" phases=1 buses=[8136.1, x_8136.1, ] conns=[wye, wye, ] kVs=[7.199558, 0.24, ] kVAs=[50, 50, ] taps=[1, 1, ] wdg=1 %R=0.65 wdg=2 %R=0.65 %imag=0.5 %loadloss=1.3 %noloadloss=0.25 Xhl=2
New "Transformer.mdv201_c_1_408_a8137-1a" phases=1 buses=[8137.1, x_8137.1, ] conns=[wye, wye, ] kVs=[7.199558, 0.24, ] kVAs=[25, 25, ] taps=[1, 1, ] wdg=1 %R=0.75 wdg=2 %R=0.75 %imag=0.5 %loadloss=1.5 %noloadloss=0.25 Xhl=2
New "Transformer.mdv201_c_1_409_a8138-1a" phases=1 buses=[8138.1, x_8138.1, ] conns=[wye, wye, ] kVs=[7.199558, 0.24, ] kVAs=[37.5, 37.5, ] taps=[1, 1, ] wdg=1 %R=0.7 wdg=2 %R=0.7 %imag=0.5 %loadloss=1.4 %noloadloss=0.25 Xhl=2
New "Transformer.mdv201_c_1_410_a8131-1a" phases=1 buses=[8131.1, x_8131.1, ] conns=[wye, wye, ] kVs=[7.199558, 0.24, ] kVAs=[25, 25, ] taps=[1, 1, ] wdg=1 %R=0.75 wdg=2 %R=0.75 %imag=0.5 %loadloss=1.5 %noloadloss=0.25 Xhl=2
New "Transformer.mdv201_c_1_412_a8128-1a" phases=1 buses=[8128.1, x_8128.1, ] conns=[wye, wye, ] kVs=[7.199558, 0.24, ] kVAs=[25, 25, ] taps=[1, 1, ] wdg=1 %R=0.75 wdg=2 %R=0.75 %imag=0.5 %loadloss=1.5 %noloadloss=0.25 Xhl=2
New "Transformer.mdv201_hn_2_610_a8130-1a" phases=1 buses=[8130.1, x_8130.1, ] conns=[wye, wye, ] kVs=[7.199558, 0.24, ] kVAs=[37.5, 37.5, ] taps=[1, 1, ] wdg=1 %R=0.7 wdg=2 %R=0.7 %imag=0.5 %loadloss=1.4 %noloadloss=0.25 Xhl=2
New "Transformer.mdv201_hn_2_606_a8132-1a" phases=1 buses=[8132.1, x_8132.1, ] conns=[wye, wye, ] kVs=[7.199558, 0.24, ] kVAs=[25, 25, ] taps=[1, 1, ] wdg=1 %R=0.75 wdg=2 %R=0.75 %imag=0.5 %loadloss=1.5 %noloadloss=0.25 Xhl=2
New "Transformer.mdv201_hn_2_607_a21652-1a" phases=1 buses=[21652.1, x_21652.1, ] conns=[wye, wye, ] kVs=[7.199558, 0.24, ] kVAs=[37.5, 37.5, ] taps=[1, 1, ] wdg=1 %R=0.7 wdg=2 %R=0.7 %imag=0.5 %loadloss=1.4 %noloadloss=0.25 Xhl=2
New "Transformer.mdv201_hn_2_608_a8133-1a" phases=1 buses=[8133.1, x_8133.1, ] conns=[wye, wye, ] kVs=[7.199558, 0.24, ] kVAs=[25, 25, ] taps=[1, 1, ] wdg=1 %R=0.75 wdg=2 %R=0.75 %imag=0.5 %loadloss=1.5 %noloadloss=0.25 Xhl=2
New "Transformer.mdv201_hn_2_477_c8121-1c" phases=1 buses=[8121.3, x_8121.3, ] conns=[wye, wye, ] kVs=[7.199558, 0.24, ] kVAs=[37.5, 37.5, ] taps=[1, 1, ] wdg=1 %R=0.7 wdg=2 %R=0.7 %imag=0.5 %loadloss=1.4 %noloadloss=0.25 Xhl=2
New "Transformer.mdv201_hn_2_697_c8125-1c" phases=1 buses=[8125.3, x_8125.3, ] conns=[wye, wye, ] kVs=[7.199558, 0.24, ] kVAs=[37.5, 37.5, ] taps=[1, 1, ] wdg=1 %R=0.7 wdg=2 %R=0.7 %imag=0.5 %loadloss=1.4 %noloadloss=0.25 Xhl=2
New "Transformer.mdv201_hn_2_478_c8115-1c" phases=1 buses=[8115.3, x_8115.3, ] conns=[wye, wye, ] kVs=[7.199558, 0.24, ] kVAs=[25, 25, ] taps=[1, 1, ] wdg=1 %R=0.75 wdg=2 %R=0.75 %imag=0.5 %loadloss=1.5 %noloadloss=0.25 Xhl=2
New "Transformer.mdv201_hn_2_479_c8116-1c" phases=1 buses=[8116.3, x_8116.3, ] conns=[wye, wye, ] kVs=[7.199558, 0.24, ] kVAs=[37.5, 37.5, ] taps=[1, 1, ] wdg=1 %R=0.7 wdg=2 %R=0.7 %imag=0.5 %loadloss=1.4 %noloadloss=0.25 Xhl=2
New "Transformer.mdv201_hn_2_146_abc63663-1a" phases=1 buses=[63663.1, x_63663.1, ] conns=[wye, wye, ] kVs=[7.199558, 0.24, ] kVAs=[25, 25, ] taps=[1, 1, ] wdg=1 %R=0.75 wdg=2 %R=0.75 %imag=0.5 %loadloss=1.5 %noloadloss=0.25 Xhl=2
New "Transformer.mdv201_hn_2_015_abc63665-1a" phases=1 buses=[63665.1, x_63665.1, ] conns=[wye, wye, ] kVs=[7.199558, 0.24, ] kVAs=[25, 25, ] taps=[1, 1, ] wdg=1 %R=0.75 wdg=2 %R=0.75 %imag=0.5 %loadloss=1.5 %noloadloss=0.25 Xhl=2
New "Transformer.mdv201_hn_2_016_abc63680-1c" phases=1 buses=[63680.3, x_63680.3, ] conns=[wye, wye, ] kVs=[7.199558, 0.24, ] kVAs=[15, 15, ] taps=[1, 1, ] wdg=1 %R=0.825 wdg=2 %R=0.825 %imag=0.5 %loadloss=1.65 %noloadloss=0.25 Xhl=2
New "Transformer.mdv201_hn_2_635_ac63666-1a" phases=1 buses=[63666.1, x_63666.1, ] conns=[wye, wye, ] kVs=[7.199558, 0.24, ] kVAs=[25, 25, ] taps=[1, 1, ] wdg=1 %R=0.75 wdg=2 %R=0.75 %imag=0.5 %loadloss=1.5 %noloadloss=0.25 Xhl=2
New "Transformer.mdv201_hn_2_633_c28239-1c" phases=1 buses=[28239.3, x_28239.3, ] conns=[wye, wye, ] kVs=[7.199558, 0.24, ] kVAs=[25, 25, ] taps=[1, 1, ] wdg=1 %R=0.75 wdg=2 %R=0.75 %imag=0.5 %loadloss=1.5 %noloadloss=0.25 Xhl=2
New "Transformer.mdv201_hn_2_632_c28235-1c" phases=1 buses=[28235.3, x_28235.3, ] conns=[wye, wye, ] kVs=[7.199558, 0.24, ] kVAs=[25, 25, ] taps=[1, 1, ] wdg=1 %R=0.75 wdg=2 %R=0.75 %imag=0.5 %loadloss=1.5 %noloadloss=0.25 Xhl=2
New "Transformer.mdv201_hn_2_631_c28233-1c" phases=1 buses=[28233.3, x_28233.3, ] conns=[wye, wye, ] kVs=[7.199558, 0.24, ] kVAs=[25, 25, ] taps=[1, 1, ] wdg=1 %R=0.75 wdg=2 %R=0.75 %imag=0.5 %loadloss=1.5 %noloadloss=0.25 Xhl=2
New "Transformer.mdv201_hn_2_630_c28228-1c" phases=1 buses=[28228.3, x_28228.3, ] conns=[wye, wye, ] kVs=[7.199558, 0.24, ] kVAs=[25, 25, ] taps=[1, 1, ] wdg=1 %R=0.75 wdg=2 %R=0.75 %imag=0.5 %loadloss=1.5 %noloadloss=0.25 Xhl=2
New "Transformer.mdv201_hn_2_629_c28229-1c" phases=1 buses=[28229.3, x_28229.3, ] conns=[wye, wye, ] kVs=[7.199558, 0.24, ] kVAs=[37.5, 37.5, ] taps=[1, 1, ] wdg=1 %R=0.7 wdg=2 %R=0.7 %imag=0.5 %loadloss=1.4 %noloadloss=0.25 Xhl=2
New "Transformer.mdv201_hn_2_628_c52531-1c" phases=1 buses=[52531.3, x_52531.3, ] conns=[wye, wye, ] kVs=[7.199558, 0.24, ] kVAs=[25, 25, ] taps=[1, 1, ] wdg=1 %R=0.75 wdg=2 %R=0.75 %imag=0.5 %loadloss=1.5 %noloadloss=0.25 Xhl=2
New "Transformer.mdv201_hn_2_640_ac28251-1a" phases=1 buses=[28251.1, x_28251.1, ] conns=[wye, wye, ] kVs=[7.199558, 0.24, ] kVAs=[37.5, 37.5, ] taps=[1, 1, ] wdg=1 %R=0.7 wdg=2 %R=0.7 %imag=0.5 %loadloss=1.4 %noloadloss=0.25 Xhl=2
New "Transformer.mdv201_hn_2_641_ac14893-1a" phases=1 buses=[14893.1, x_14893.1, ] conns=[wye, wye, ] kVs=[7.199558, 0.24, ] kVAs=[25, 25, ] taps=[1, 1, ] wdg=1 %R=0.75 wdg=2 %R=0.75 %imag=0.5 %loadloss=1.5 %noloadloss=0.25 Xhl=2
New "Transformer.mdv201_hn_2_642_a14894-1a" phases=1 buses=[14894.1, x_14894.1, ] conns=[wye, wye, ] kVs=[7.199558, 0.24, ] kVAs=[25, 25, ] taps=[1, 1, ] wdg=1 %R=0.75 wdg=2 %R=0.75 %imag=0.5 %loadloss=1.5 %noloadloss=0.25 Xhl=2
New "Transformer.mdv201_hn_2_648_a28250-1a" phases=1 buses=[28250.1, x_28250.1, ] conns=[wye, wye, ] kVs=[7.199558, 0.24, ] kVAs=[25, 25, ] taps=[1, 1, ] wdg=1 %R=0.75 wdg=2 %R=0.75 %imag=0.5 %loadloss=1.5 %noloadloss=0.25 Xhl=2
New "Transformer.mdv201_hn_2_649_a28248-1a" phases=1 buses=[28248.1, x_28248.1, ] conns=[wye, wye, ] kVs=[7.199558, 0.24, ] kVAs=[50, 50, ] taps=[1, 1, ] wdg=1 %R=0.65 wdg=2 %R=0.65 %imag=0.5 %loadloss=1.3 %noloadloss=0.25 Xhl=2
New "Transformer.mdv201_hn_2_650_a28242-1a" phases=1 buses=[28242.1, x_28242.1, ] conns=[wye, wye, ] kVs=[7.199558, 0.24, ] kVAs=[25, 25, ] taps=[1, 1, ] wdg=1 %R=0.75 wdg=2 %R=0.75 %imag=0.5 %loadloss=1.5 %noloadloss=0.25 Xhl=2
New "Transformer.mdv201_hn_2_651_a28243-1a" phases=1 buses=[28243.1, x_28243.1, ] conns=[wye, wye, ] kVs=[7.199558, 0.24, ] kVAs=[25, 25, ] taps=[1, 1, ] wdg=1 %R=0.75 wdg=2 %R=0.75 %imag=0.5 %loadloss=1.5 %noloadloss=0.25 Xhl=2
New "Transformer.mdv201_hn_2_643_a28241-1a" phases=1 buses=[28241.1, x_28241.1, ] conns=[wye, wye, ] kVs=[7.199558, 0.24, ] kVAs=[25, 25, ] taps=[1, 1, ] wdg=1 %R=0.75 wdg=2 %R=0.75 %imag=0.5 %loadloss=1.5 %noloadloss=0.25 Xhl=2
New "Transformer.mdv201_hn_2_644_a28238-1a" phases=1 buses=[28238.1, x_28238.1, ] conns=[wye, wye, ] kVs=[7.199558, 0.24, ] kVAs=[25, 25, ] taps=[1, 1, ] wdg=1 %R=0.75 wdg=2 %R=0.75 %imag=0.5 %loadloss=1.5 %noloadloss=0.25 Xhl=2
New "Transformer.mdv201_hn_2_645_a28234-1a" phases=1 buses=[28234.1, x_28234.1, ] conns=[wye, wye, ] kVs=[7.199558, 0.24, ] kVAs=[25, 25, ] taps=[1, 1, ] wdg=1 %R=0.75 wdg=2 %R=0.75 %imag=0.5 %loadloss=1.5 %noloadloss=0.25 Xhl=2
New "Transformer.mdv201_hn_2_646_a28230-1a" phases=1 buses=[28230.1, x_28230.1, ] conns=[wye, wye, ] kVs=[7.199558, 0.24, ] kVAs=[25, 25, ] taps=[1, 1, ] wdg=1 %R=0.75 wdg=2 %R=0.75 %imag=0.5 %loadloss=1.5 %noloadloss=0.25 Xhl=2
New "Transformer.mdv201_hn_2_647_a28231-1a" phases=1 buses=[28231.1, x_28231.1, ] conns=[wye, wye, ] kVs=[7.199558, 0.24, ] kVAs=[25, 25, ] taps=[1, 1, ] wdg=1 %R=0.75 wdg=2 %R=0.75 %imag=0.5 %loadloss=1.5 %noloadloss=0.25 Xhl=2
New "Transformer.mdv201_hn_2_656_a14864-1a" phases=1 buses=[14864.1, x_14864.1, ] conns=[wye, wye, ] kVs=[7.199558, 0.24, ] kVAs=[25, 25, ] taps=[1, 1, ] wdg=1 %R=0.75 wdg=2 %R=0.75 %imag=0.5 %loadloss=1.5 %noloadloss=0.25 Xhl=2
New "Transformer.mdv201_hn_2_655_a14863-1a" phases=1 buses=[14863.1, x_14863.1, ] conns=[wye, wye, ] kVs=[7.199558, 0.24, ] kVAs=[25, 25, ] taps=[1, 1, ] wdg=1 %R=0.75 wdg=2 %R=0.75 %imag=0.5 %loadloss=1.5 %noloadloss=0.25 Xhl=2
New "Transformer.mdv201_hn_2_654_a14881-1a" phases=1 buses=[14881.1, x_14881.1, ] conns=[wye, wye, ] kVs=[7.199558, 0.24, ] kVAs=[25, 25, ] taps=[1, 1, ] wdg=1 %R=0.75 wdg=2 %R=0.75 %imag=0.5 %loadloss=1.5 %noloadloss=0.25 Xhl=2
New "Transformer.mdv201_hn_2_653_a14878-1a" phases=1 buses=[14878.1, x_14878.1, ] conns=[wye, wye, ] kVs=[7.199558, 0.24, ] kVAs=[37.5, 37.5, ] taps=[1, 1, ] wdg=1 %R=0.7 wdg=2 %R=0.7 %imag=0.5 %loadloss=1.4 %noloadloss=0.25 Xhl=2
New "Transformer.mdv201_hn_2_637_c28240-1c" phases=1 buses=[28240.3, x_28240.3, ] conns=[wye, wye, ] kVs=[7.199558, 0.24, ] kVAs=[25, 25, ] taps=[1, 1, ] wdg=1 %R=0.75 wdg=2 %R=0.75 %imag=0.5 %loadloss=1.5 %noloadloss=0.25 Xhl=2
New "Transformer.mdv201_hn_2_638_c28237-1c" phases=1 buses=[28237.3, x_28237.3, ] conns=[wye, wye, ] kVs=[7.199558, 0.24, ] kVAs=[25, 25, ] taps=[1, 1, ] wdg=1 %R=0.75 wdg=2 %R=0.75 %imag=0.5 %loadloss=1.5 %noloadloss=0.25 Xhl=2
New "Transformer.mdv201_hn_2_291_abc63681-1a" phases=1 buses=[63681.1, x_63681.1, ] conns=[wye, wye, ] kVs=[7.199558, 0.24, ] kVAs=[37.5, 37.5, ] taps=[1, 1, ] wdg=1 %R=0.7 wdg=2 %R=0.7 %imag=0.5 %loadloss=1.4 %noloadloss=0.25 Xhl=2
New "Transformer.mdv201_hn_2_613_abc63682-1a" phases=1 buses=[63682.1, x_63682.1, ] conns=[wye, wye, ] kVs=[7.199558, 0.24, ] kVAs=[25, 25, ] taps=[1, 1, ] wdg=1 %R=0.75 wdg=2 %R=0.75 %imag=0.5 %loadloss=1.5 %noloadloss=0.25 Xhl=2
New "Transformer.mdv201_63677fuse-1a" phases=1 buses=[63677.1, x_63677.1, ] conns=[wye, wye, ] kVs=[7.199558, 0.24, ] kVAs=[25, 25, ] taps=[1, 1, ] wdg=1 %R=0.75 wdg=2 %R=0.75 %imag=0.5 %loadloss=1.5 %noloadloss=0.25 Xhl=2
New "Transformer.mdv201_hn_2_711_a63676-1a" phases=1 buses=[63676.1, x_63676.1, ] conns=[wye, wye, ] kVs=[7.199558, 0.24, ] kVAs=[25, 25, ] taps=[1, 1, ] wdg=1 %R=0.75 wdg=2 %R=0.75 %imag=0.5 %loadloss=1.5 %noloadloss=0.25 Xhl=2
New "Transformer.mdv201_hn_2_712_a63678-1a" phases=1 buses=[63678.1, x_63678.1, ] conns=[wye, wye, ] kVs=[7.199558, 0.24, ] kVAs=[37.5, 37.5, ] taps=[1, 1, ] wdg=1 %R=0.7 wdg=2 %R=0.7 %imag=0.5 %loadloss=1.4 %noloadloss=0.25 Xhl=2
New "Transformer.mdv201_hn_2_713_a63679-1a" phases=1 buses=[63679.1, x_63679.1, ] conns=[wye, wye, ] kVs=[7.199558, 0.24, ] kVAs=[25, 25, ] taps=[1, 1, ] wdg=1 %R=0.75 wdg=2 %R=0.75 %imag=0.5 %loadloss=1.5 %noloadloss=0.25 Xhl=2
New "Transformer.mdv201_hn_2_616_abc28226-1c" phases=1 buses=[28226.3, x_28226.3, ] conns=[wye, wye, ] kVs=[7.199558, 0.24, ] kVAs=[25, 25, ] taps=[1, 1, ] wdg=1 %R=0.75 wdg=2 %R=0.75 %imag=0.5 %loadloss=1.5 %noloadloss=0.25 Xhl=2
New "Transformer.mdv201_hn_2_681_a28225-1a" phases=1 buses=[28225.1, x_28225.1, ] conns=[wye, wye, ] kVs=[7.199558, 0.24, ] kVAs=[37.5, 37.5, ] taps=[1, 1, ] wdg=1 %R=0.7 wdg=2 %R=0.7 %imag=0.5 %loadloss=1.4 %noloadloss=0.25 Xhl=2
New "Transformer.mdv201_hn_2_682_a39565-1a" phases=1 buses=[39565.1, x_39565.1, ] conns=[wye, wye, ] kVs=[7.199558, 0.24, ] kVAs=[37.5, 37.5, ] taps=[1, 1, ] wdg=1 %R=0.7 wdg=2 %R=0.7 %imag=0.5 %loadloss=1.4 %noloadloss=0.25 Xhl=2
New "Transformer.mdv201_hn_2_683_a39601-1a" phases=1 buses=[39601.1, x_39601.1, ] conns=[wye, wye, ] kVs=[7.199558, 0.24, ] kVAs=[25, 25, ] taps=[1, 1, ] wdg=1 %R=0.75 wdg=2 %R=0.75 %imag=0.5 %loadloss=1.5 %noloadloss=0.25 Xhl=2