New "Transformer.mdv_sub_1" phases=3 windings=2 buses=[mdv_sub_1_hsb, _mdv_sub_1_lsb.1.2.3.0, ] conns=[delta, wye, ] kVs=[115, 12.47, ] kVAs=[10000, 10000, ] Xhl=6.971664 sub=y subname=MDV_SUB_1 buses=[mdv_sub_1_hsb, _mdv_sub_1_lsb.1.2.3.0, ] conns=[delta, wye, ] kVs=[115, 12.47, ] kVAs=[10000, 10000, ] taps=[1, 1, ] wdg=1 %R=0.3311878 wdg=2 %R=0.3311878
